#
# Generated by PyRED version JAN-2019
#     http://q4md-forcefieldtools.org
#
@<TRIPOS>MOLECULE
ACE
     6     5     1     0     1
SMALL
USER_CHARGES
@<TRIPOS>ATOM
   1 C1    -1.780667   0.769808  -0.012669 c3   1   ACE -0.2566  0.0000 ****
   2 H1    -2.737949   0.273277   0.033631 h1   1   ACE  0.0729  0.0000 ****
   3 H2    -1.736467   1.374027  -0.912188 h1   1   ACE  0.0729  0.0000 ****
   4 H3    -1.681764   1.430607   0.841834 h1   1   ACE  0.0729  0.0000 ****
   5 C     -0.711232  -0.306530  -0.012481 c    1   ACE  0.6453  0.0000 ****
   6 O     -1.022538  -1.465883   0.046737 o    1   ACE -0.6074  0.0000 ****
@<TRIPOS>BOND
    1     1     2 1
    2     1     3 1
    3     1     4 1
    4     1     5 1
    5     5     6 1
@<TRIPOS>SUBSTRUCTURE
      1 ACE               1 ****               0 ****  ****
@<TRIPOS>HEADTAIL
0 0
C 1
@<TRIPOS>RESIDUECONNECT
1 0 C 0 0 0 0
