@<TRIPOS>MOLECULE
NH2
 3 2 0 0 0
SMALL
GASTEIGER

@<TRIPOS>ATOM
      1 N           0.8966   -0.0470   -0.0487 n       1  NH2        -0.6064
      2 H1          1.9140    0.0107   -0.0399 hn      1  NH2         0.3032
      3 H2          0.5850    0.5981   -0.7734 hn      1  NH2         0.3032

@<TRIPOS>BOND
     1     1     2    1
     2     1     3    1
     3     1     4    1
@<TRIPOS>SUBSTRUCTURE
      1 NH2               1 ****               0 ****  ****
@<TRIPOS>HEADTAIL
N 1
0 0
@<TRIPOS>RESIDUECONNECT
1 N 0 0 0 0 0
