#
# Generated by PyRED version JAN-2019
#     http://q4md-forcefieldtools.org
#
@<TRIPOS>MOLECULE
NME
     9     8     1     0     1
SMALL
USER_CHARGES
@<TRIPOS>ATOM
   1 N     3.149988   -1.975273   -1.635106 n    1   NME -0.3160  0.0000 ****
   2 C1    3.591499   -2.778567   -0.518285 c3   1   NME  0.1268  0.0000 ****
   3 H1    3.091246   -2.504292    0.395391 h1   1   NME  0.0104  0.0000 ****
   4 H2    4.660782   -2.660282   -0.365997 h1   1   NME  0.0104  0.0000 ****
   5 H3    3.395407   -3.830358   -0.707513 h1   1   NME  0.0104  0.0000 ****
   6 C2    3.763615   -2.266470   -2.914465 c3   1   NME  0.1268  0.0000 ****
   7 H4    3.358332   -1.609626   -3.663872 h1   1   NME  0.0104  0.0000 ****
   8 H5    3.571306   -3.297335   -3.198996 h1   1   NME  0.0104  0.0000 ****
   9 H6    4.839472   -2.125296   -2.857572 h1   1   NME  0.0104  0.0000 ****
@<TRIPOS>BOND
    1     1     2 1
    2     1     6 1
    3     2     3 1
    4     2     4 1
    5     2     5 1
    6     6     7 1
    7     6     8 1
    8     6     9 1
@<TRIPOS>SUBSTRUCTURE
      1 NME               1 ****               0 ****  ****
@<TRIPOS>HEADTAIL
N 1
0 0
@<TRIPOS>RESIDUECONNECT
1 N 0 0 0 0 0
