@<TRIPOS>MOLECULE
OTB
 14 13 0 0 0
SMALL
GASTEIGER

@<TRIPOS>ATOM
      1 O           4.5288    2.8159   -0.3102 os      1  OTB       -0.3414 
      2 C1          4.8235    4.1184    0.2572 c3      1  OTB        0.7350
      3 C2          5.1630    5.1133   -0.8518 c3      1  OTB       -0.2926
      4 H1          4.3487    5.1687   -1.5721 hc      1  OTB        0.0538
      5 H2          6.0706    4.8098   -1.3666 hc      1  OTB        0.0538
      6 H3          5.3158    6.0990   -0.4215 hc      1  OTB        0.0538
      7 C3          3.5247    4.5108    0.9613 c3      1  OTB       -0.2926
      8 H4          2.7137    4.5800    0.2404 hc      1  OTB        0.0538
      9 H5          3.6424    5.4707    1.4549 hc      1  OTB        0.0538
     10 H6          3.2664    3.7576    1.7010 hc      1  OTB        0.0538
     11 C4          5.9662    3.9980    1.2631 c3      1  OTB       -0.2926
     12 H7          6.8894    3.7286    0.7574 hc      1  OTB        0.0538
     13 H8          5.7316    3.2309    1.9979 hc      1  OTB        0.0538
     14 H9          6.1072    4.9465    1.7737 hc      1  OTB        0.0538
@<TRIPOS>BOND
     1     4     3    1
     2     5     3    1
     3     3     6    1
     4     3     2    1
     5     1     2    1
     6     8     7    1
     7     2     7    1
     8     2    11    1
     9    12    11    1
    10     7     9    1
    11     7    10    1
    12    11    14    1
    13    11    13    1
@<TRIPOS>SUBSTRUCTURE
      1 OTB               1 ****               0 ****  ****
@<TRIPOS>HEADTAIL
O 1
0 0
@<TRIPOS>RESIDUECONNECT
1 O 0 0 0 0 0
