@<TRIPOS>MOLECULE
R01
 10 9 0 0 0
SMALL
GASTEIGER

@<TRIPOS>ATOM
      1 N           0.1760   -1.3310   -0.5700 n       1  R01       -0.3131
      2 C1          1.5310   -1.6460   -0.9550 c3      1  R01        0.0432
      3 H1          1.6130   -2.6900   -1.2510 hc      1  R01        0.0235
      4 H2          2.2340   -1.4390   -0.1440 hc      1  R01        0.0235
      5 H3          1.8030   -1.0230   -1.8060 hc      1  R01        0.0235
      6 CA         -0.2990    0.0040   -0.8450 c3      1  R01        0.1686
      7 H4         -1.3750    0.0000   -0.6470 h1      1  R01        0.0022
      8 H5         -0.1200    0.2530   -1.8970 h1      1  R01        0.0022
      9 C           0.3860    1.0330    0.0590 c       1  R01        0.5630
     10 O           1.3390    0.7430    0.7550 o       1  R01       -0.5366
@<TRIPOS>BOND
     1     8     6    1
     2     5     2    1
     3     3     2    1
     4     2     1    1
     5     2     4    1
     6     6     7    1
     7     6     1    1
     8     6     9    1
     9     9    10    2
@<TRIPOS>SUBSTRUCTURE
      1 R01               1 ****               0 ****  ****
@<TRIPOS>HEADTAIL
N  1
C  1
@<TRIPOS>RESIDUECONNECT
1 N C 0 0 0 0