@<TRIPOS>MOLECULE
R02
 23 23 0 0 0
SMALL
GASTEIGER

@<TRIPOS>ATOM
      1 N          -0.3960    0.1810   -0.1830 n      1  R02       -0.4226
      2 C1          0.4020   -0.7990   -0.9040 c3     1  R02        0.5537
      3 H1         -0.0140   -0.8850   -1.9150 h1     1  R02       -0.0687
      4 C2          1.8660   -0.3830   -1.0680 c3     1  R02       -0.2281
      5 H2          2.4090   -0.4390   -0.1260 hc     1  R02        0.0359
      6 H3          1.9210    0.6250   -1.4700 hc     1  R02        0.0359
      7 H4          2.3460   -1.0640   -1.7670 hc     1  R02        0.0359
      8 C3          0.3500   -2.1600   -0.2370 ca     1  R02        0.0953 
      9 C4          0.2010   -2.2870    1.1380 ca     1  R02       -0.2411
     10 H5          0.0770   -1.4040    1.7480 ha     1  R02        0.1053
     11 C5          0.1940   -3.5370    1.7310 ca     1  R02       -0.0076
     12 H6          0.0730   -3.6210    2.8010 ha     1  R02        0.0774
     13 C6          0.3400   -4.6760    0.9590 ca     1  R02       -0.1813
     14 H7          0.3340   -5.6510    1.4220 ha     1  R02        0.1096
     15 C7          0.4910   -4.5590   -0.4130 ca     1  R02       -0.0076
     16 H8          0.6020   -5.4430   -1.0230 ha     1  R02        0.0774
     17 C8          0.4950   -3.3090   -1.0050 ca     1  R02       -0.2411
     18 H9          0.6070   -3.2210   -2.0770 ha     1  R02        0.1053
     19 CA          0.2060    1.2250    0.6200 c3     1  R02        0.0460
     20 H10         1.1600    0.8960    1.0310 h1     1  R02        0.0384
     21 H11        -0.4940    1.4360    1.4320 h1     1  R02        0.0384
     22 C           0.4090    2.4900   -0.2210 c      1  R02        0.5971 
     23 O           0.5050    2.4360   -1.4340 o      1  R02       -0.5535
@<TRIPOS>BOND
     1    18    17    1
     2     3     2    1
     3     7     4    1
     4     6     4    1
     5    23    22    2
     6     4     2    1
     7     4     5    1
     8    16    15    1
     9    17    15   ar
    10    17     8   ar
    11     2     8    1
    12     2     1    1
    13    15    13   ar
    14     8     9   ar
    15    22    19    1
    16     1    19    1
    17    19    20    1
    18    19    21    1
    19    13    14    1
    20    13    11   ar
    21     9    11   ar
    22     9    10    1
    23    11    12    1
@<TRIPOS>SUBSTRUCTURE
      1 R02               1 ****               0 ****  ****
@<TRIPOS>HEADTAIL
N  1
C  1
@<TRIPOS>RESIDUECONNECT
1 N C 0 0 0 0