@<TRIPOS>MOLECULE
R03
 15 14 0 0 0
SMALL
GASTEIGER

@<TRIPOS>ATOM
      1 N          -0.1870    1.0380   -0.0200 n       1  R03       -0.3422
      2 C1          0.5730    1.6830   -1.0730 c3      1  R03        0.0888
      3 H1         -0.1360    2.1630   -1.7510 h1      1  R03        0.0061
      4 H2          1.1320    0.9200   -1.6170 h1      1  R03        0.0061
      5 C2          1.5280    2.7500   -0.5280 c3      1  R03        0.4788
      6 H3          0.9290    3.5710   -0.1080 h1      1  R03       -0.0746
      7 H4          2.1120    3.1430   -1.3630 h1      1  R03       -0.0746
      8 N2          2.4540    2.1680    0.4410 n3      1  R03       -0.8133
      9 H5          1.9680    2.0140    1.3200 hn      1  R03        0.2729
     10 H6          3.2100    2.8170    0.6310 hn      1  R03        0.2729
     11 CA          0.3380   -0.2030    0.4900 c3      1  R03        0.2443
     12 H7          0.0760   -0.3190    1.5460 h1      1  R03       -0.0317
     13 H8          1.4260   -0.1580    0.3960 h1      1  R03       -0.0317
     14 C          -0.2050   -1.4010   -0.3050 c       1  R03        0.5334
     15 O          -1.0270   -1.2480   -1.1850 o       1  R03       -0.5352
@<TRIPOS>BOND
     1     3     2    1
     2     4     2    1
     3     7     5    1
     4    15    14    2
     5     2     5    1
     6     2     1    1
     7     5     6    1
     8     5     8    1
     9    14    11    1
    10     1    11    1
    11    13    11    1
    12     8    10    1
    13     8     9    1
    14    11    12    1
@<TRIPOS>SUBSTRUCTURE
      1 R03               1 ****               0 ****  ****
@<TRIPOS>HEADTAIL
N  1
C  1
@<TRIPOS>RESIDUECONNECT
1 N C 0 0 0 0