@<TRIPOS>MOLECULE
R04
 13 12 0 0 0
SMALL
GASTEIGER

@<TRIPOS>ATOM
      1 N           0.6660   -0.6990    0.4630 n       1  R04       -0.1878
      2 C1         -0.3610   -1.4500    1.1480 c3      1  R04       -0.0379
      3 H1         -1.0050   -0.7460    1.6820 h1      1  R04        0.0241
      4 H2          0.0690   -2.1420    1.8820 h1      1  R04        0.0241
      5 C2         -1.2800   -2.2680    0.2140 c       1  R04        0.8430
      6 O1         -1.6070   -3.3890    0.4940 o       1  R04       -0.6205
      7 O2         -1.6770   -1.6500   -0.8760 oh      1  R04       -0.5999
      8 H3         -1.4200   -0.6850   -0.8980 ho      1  R04        0.3551
      9 CA          0.7710    0.7210    0.7150 c3      1  R04       -0.1226
     10 H4          1.7640    1.0120    0.3550 h1      1  R04        0.0878
     11 H5          0.6890    0.9190    1.7890 h1      1  R04        0.0878
     12 C          -0.2890    1.5110   -0.0490 c       1  R04        0.6906
     13 O          -1.1470    0.9360   -0.7130 o       1  R04       -0.5438
@<TRIPOS>BOND
     1     8     7    1
     2     7     5    1
     3    13    12    2
     4    12     9    1
     5     5     6    2
     6     5     2    1
     7    10     9    1
     8     1     9    1
     9     1     2    1
    10     9    11    1
    11     2     3    1
    12     2     4    1
@<TRIPOS>SUBSTRUCTURE
      1 R04               1 ****               0 ****  ****
@<TRIPOS>HEADTAIL
N  1
C  1
@<TRIPOS>RESIDUECONNECT
1 N C 0 0 0 0