@<TRIPOS>MOLECULE
R05
 16 15 0 0 0
SMALL
GASTEIGER

@<TRIPOS>ATOM
      1 N          -0.3780   -0.3320    0.0460 n       1  R05       -0.3502
      2 C1          0.3560   -1.0580    1.0570 c3      1  R05        0.3298
      3 H1         -0.3300   -1.6500    1.6590 h1      1  R05       -0.0231
      4 H2          0.8490   -0.3310    1.7070 h1      1  R05       -0.0231
      5 C2          1.4080   -2.0030    0.4520 c3      1  R05       -0.2410
      6 H3          2.1220   -2.2760    1.2340 h1      1  R05        0.0507
      7 H4          1.9600   -1.5050   -0.3490 h1      1  R05        0.0507
      8 C3          0.8080   -3.3010   -0.0630 c       1  R05        0.7492
      9 O1         -0.2220   -3.7680    0.3240 o       1  R05       -0.4896
     10 O2          1.5460   -3.9450   -0.9840 oh      1  R05       -0.6218
     11 H5          2.3600   -3.4800   -1.2150 ho      1  R05        0.4010
     12 CA          0.2920    0.7950   -0.5680 c3      1  R05        0.1208
     13 H6         -0.2810    1.0420   -1.4640 h1      1  R05        0.0093
     14 H7          1.3160    0.5300   -0.8500 h1      1  R05        0.0093
     15 C           0.3320    1.9990    0.3800 c       1  R05        0.5982
     16 O           0.2130    1.8690    1.5850 o       1  R05       -0.5702
@<TRIPOS>BOND
     1    13    12    1
     2    11    10    1
     3    10     8    1
     4    14    12    1
     5    12     1    1
     6    12    15    1
     7     7     5    1
     8     8     9    2
     9     8     5    1
    10     1     2    1
    11    15    16    2
    12     5     2    1
    13     5     6    1
    14     2     3    1
    15     2     4    1
@<TRIPOS>SUBSTRUCTURE
      1 R05               1 ****               0 ****  ****
@<TRIPOS>HEADTAIL
N  1
C  1
@<TRIPOS>RESIDUECONNECT
1 N C 0 0 0 0