@<TRIPOS>MOLECULE
R06
 14 13 0 0 0
SMALL
GASTEIGER

@<TRIPOS>ATOM
      1 N          -0.5150    0.7600   -0.0440 n       1  R06       -0.3007
      2 C1         -0.0210    1.4640   -1.2110 c3      1  R06        0.1994
      3 H1         -0.8690    1.6620   -1.8730 h1      1  R06       -0.0099
      4 H2          0.6950    0.8270   -1.7330 h1      1  R06       -0.0099
      5 C2          0.6130    2.8030   -0.8510 c3      1  R06        0.2365
      6 H3         -0.1180    3.4600   -0.3850 h1      1  R06       -0.0096
      7 H4          1.0170    3.2800   -1.7430 h1      1  R06       -0.0096
      8 S1          2.0280    2.6320    0.2940 sh      1  R06       -0.3684
      9 H5          1.2980    2.4170    1.3860 hs      1  R06        0.1457
     10 CA          0.2700   -0.3480    0.4410 c3      1  R06        0.0643
     11 H6          0.1150   -0.4740    1.5150 h1      1  R06        0.0153
     12 H7          1.3240   -0.1170    0.2630 h1      1  R06        0.0153
     13 C          -0.1070   -1.6470   -0.2920 c       1  R06        0.5853
     14 O          -1.0040   -1.6600   -1.1110 o       1  R06       -0.5537
@<TRIPOS>BOND
     1     3     2    1
     2     7     5    1
     3     4     2    1
     4     2     5    1
     5     2     1    1
     6    14    13    2
     7     5     6    1
     8     5     8    1
     9    13    10    1
    10     1    10    1
    11    12    10    1
    12     8     9    1
    13    10    11    1
@<TRIPOS>SUBSTRUCTURE
      1 R06               1 ****               0 ****  ****
@<TRIPOS>HEADTAIL
N  1
C  1
@<TRIPOS>RESIDUECONNECT
1 N C 0 0 0 0