@<TRIPOS>MOLECULE
R07
 23 23 0 0 0
SMALL
GASTEIGER

@<TRIPOS>ATOM
      1 N          -1.0390    1.3480   -0.7010 n     1  R07       -0.3256
      2 C1         -1.0360   -0.0980   -0.7260 c3    1  R07        0.2830
      3 H1         -0.4050   -0.4110   -1.5620 h1    1  R07       -0.0246
      4 H2         -2.0440   -0.4790   -0.9030 h1    1  R07       -0.0246
      5 C2         -0.4650   -0.7210    0.5610 c3    1  R07       -0.0891
      6 H3         -1.1550   -0.5730    1.3930 hc    1  R07        0.0256
      7 H4          0.4750   -0.2240    0.8020 hc    1  R07        0.0256
      8 C3         -0.2090   -2.1850    0.3430 ca    1  R07        0.1161
      9 C4          0.9350   -2.5860   -0.3370 ca    1  R07       -0.1779
     10 H5          1.6380   -1.8400   -0.6780 ha    1  R07        0.1262
     11 C5          1.1730   -3.9280   -0.5750 ca    1  R07       -0.0956
     12 H6          2.0660   -4.2300   -1.1020 ha    1  R07        0.0882
     13 C6          0.2700   -4.8830   -0.1380 ca    1  R07       -0.0942
     14 H7          0.4560   -5.9300   -0.3220 ha    1  R07        0.0927
     15 C7         -0.8730   -4.4900    0.5370 ca    1  R07       -0.0956
     16 H8         -1.5810   -5.2310    0.8800 ha    1  R07        0.0882
     17 C8         -1.1120   -3.1470    0.7740 ca    1  R07       -0.1779
     18 H9         -2.0050   -2.8450    1.3040 ha    1  R07        0.1262
     19 CA          0.1060    1.9920   -1.3210 c3    1  R07        0.0576
     20 H10        -0.0560    3.0700   -1.3030 h1    1  R07        0.0175
     21 H11         0.1750    1.6600   -2.3630 h1    1  R07        0.0175
     22 C           1.4310    1.5980   -0.6620 c     1  R07        0.6074
     23 O           2.1470    0.7650   -1.1960 o     1  R07       -0.5667
@<TRIPOS>BOND
     1    21    19    1
     2     3     2    1
     3    19    20    1
     4    19     1    1
     5    19    22    1
     6    23    22    2
     7    12    11    1
     8     4     2    1
     9     2     1    1
    10     2     5    1
    11    10     9    1
    12    11     9   ar
    13    11    13   ar
    14     9     8   ar
    15    14    13    1
    16    13    15   ar
    17     8     5    1
    18     8    17   ar
    19    15    17   ar
    20    15    16    1
    21     5     7    1
    22     5     6    1
    23    17    18    1
@<TRIPOS>SUBSTRUCTURE
      1 R07               1 ****               0 ****  ****
@<TRIPOS>HEADTAIL
N  1
C  1
@<TRIPOS>RESIDUECONNECT
1 N C 0 0 0 0