@<TRIPOS>MOLECULE
R08
 23 23 0 0 0
SMALL
GASTEIGER

@<TRIPOS>ATOM
      1 N          -1.1080    1.6910   -0.5800 n       1  R08       -0.3538
      2 C1         -1.0380    0.2490   -0.6220 c3      1  R08        0.3291
      3 H1         -0.3140   -0.0240   -1.3960 h1      1  R08       -0.0577
      4 H2         -2.0070   -0.1560   -0.9220 h1      1  R08       -0.0577
      5 C2         -0.5950   -0.4000    0.7040 c3      1  R08        0.0924
      6 H3         -1.3940   -0.3180    1.4410 hc      1  R08       -0.0047
      7 H4          0.2690    0.1470    1.0820 hc      1  R08       -0.0047
      8 C3         -0.2550   -1.8410    0.4740 ca      1  R08        0.0198
      9 C4          1.0380   -2.2120    0.1240 ca      1  R08       -0.1656
     10 H5          1.8080   -1.4570    0.0610 ha      1  R08        0.1220
     11 C5          1.3570   -3.5330   -0.1320 ca      1  R08       -0.1680
     12 H6          2.3640   -3.8160   -0.3970 ha      1  R08        0.1251
     13 C6          0.3680   -4.4980   -0.0400 ca      1  R08        0.2470
     14 Cl          0.7560   -6.1550   -0.3580 cl      1  R08       -0.1964
     15 C7         -0.9280   -4.1530    0.3060 ca      1  R08       -0.1680
     16 H7         -1.6890   -4.9150    0.3780 ha      1  R08        0.1251
     17 C8         -1.2300   -2.8270    0.5590 ca      1  R08       -0.1656
     18 H8         -2.2400   -2.5580    0.8320 ha      1  R08        0.1220
     19 CA          0.0380    2.4650   -1.0060 c3      1  R08       -0.0577
     20 H9         -0.3520    3.3870   -1.4460 h1      1  R08        0.0674
     21 H10         0.5990    1.9050   -1.7600 h1      1  R08        0.0674
     22 C           0.9710    2.8190    0.1570 c       1  R08        0.6272
     23 O           0.9880    2.1730    1.1890 o       1  R08       -0.5446
@<TRIPOS>BOND
     1    21    19    1
     2    20    19    1
     3     3     2    1
     4    19     1    1
     5    19    22    1
     6     4     2    1
     7     2     1    1
     8     2     5    1
     9    12    11    1
    10    14    13    1
    11    11    13   ar
    12    11     9   ar
    13    13    15   ar
    14    10     9    1
    15     9     8   ar
    16    22    23    2
    17    15    16    1
    18    15    17   ar
    19     8    17   ar
    20     8     5    1
    21    17    18    1
    22     5     7    1
    23     5     6    1
@<TRIPOS>SUBSTRUCTURE
      1 R08               1 ****               0 ****  ****
@<TRIPOS>HEADTAIL
N  1
C  1
@<TRIPOS>RESIDUECONNECT
1 N C 0 0 0 0