@<TRIPOS>MOLECULE
R09
 25 25 0 0 0
SMALL
GASTEIGER

@<TRIPOS>ATOM
      1 N          -0.1490    1.1480   -0.4920 n       1  R09       -0.3122
      2 C1         -0.8900    0.3450    0.4710 c3      1  R09        0.4972
      3 H1         -0.5460    0.6940    1.4540 h1      1  R09       -0.0800
      4 C2         -2.4000    0.6070    0.4350 c3      1  R09       -0.1348
      5 H2         -2.8990    0.0460   -0.3480 hc      1  R09        0.0229
      6 H3         -2.5520    1.6710    0.2740 hc      1  R09        0.0229
      7 H4         -2.8450    0.3470    1.3910 hc      1  R09        0.0229
      8 C3         -0.5060   -1.1200    0.3880 ca      1  R09        0.0075
      9 C4          0.7570   -1.4850   -0.0790 ca      1  R09       -0.1519
     10 H5          1.4410   -0.7240   -0.4230 ha      1  R09        0.0947
     11 C5          1.1430   -2.8080   -0.1240 ca      1  R09       -0.0987
     12 H6          2.1170   -3.0970   -0.4880 ha      1  R09        0.1344
     13 C6          0.2590   -3.7890    0.3100 ca      1  R09        0.0108
     14 N2          0.6550   -5.1720    0.2700 no      1  R09        0.7769
     15 O1          1.7700   -5.4280   -0.1330 o       1  R09       -0.4658
     16 O2         -0.1500   -5.9990    0.6430 o       1  R09       -0.4667
     17 C7         -0.9990   -3.4480    0.7870 ca      1  R09       -0.0987
     18 H7         -1.6660   -4.2280    1.1210 ha      1  R09        0.1344
     19 C8         -1.3730   -2.1190    0.8260 ca      1  R09       -0.1519
     20 H8         -2.3500   -1.8620    1.2010 ha      1  R09        0.0947
     21 CA          0.7650    2.1430    0.0290 c3      1  R09       -0.0126
     22 H9          1.4430    2.4010   -0.7900 h1      1  R09        0.0459
     23 H10         1.3410    1.7260    0.8620 h1      1  R09        0.0459
     24 C           0.0290    3.4040    0.4870 c       1  R09        0.6113
     25 O          -1.1820    3.4420    0.5940 o       1  R09       -0.5491
@<TRIPOS>BOND
     1    22    21    1
     2     1    21    1
     3     1     2    1
     4    12    11    1
     5    10     9    1
     6     5     4    1
     7    15    14    2
     8    11     9   ar
     9    11    13   ar
    10     9     8   ar
    11    21    24    1
    12    21    23    1
    13    14    13    1
    14    14    16    2
    15     6     4    1
    16    13    17   ar
    17     8     2    1
    18     8    19   ar
    19     4     2    1
    20     4     7    1
    21     2     3    1
    22    24    25    2
    23    17    19   ar
    24    17    18    1
    25    19    20    1
@<TRIPOS>SUBSTRUCTURE
      1 R09               1 ****               0 ****  ****
@<TRIPOS>HEADTAIL
N  1
C  1
@<TRIPOS>RESIDUECONNECT
1 N C 0 0 0 0