@<TRIPOS>MOLECULE
R10
 25 25 0 0 0
SMALL
GASTEIGER

@<TRIPOS>ATOM
      1 N          -1.0000   -0.5870   -0.1020 n       1  R10       -0.3469
      2 C1         -1.2430    0.4270    0.9130 c3      1  R10        0.4090
      3 H1         -2.3140    0.6530    0.8990 h1      1  R10       -0.0746
      4 C2         -0.8940   -0.1040    2.3040 c3      1  R10        0.0008
      5 H2          0.1790   -0.2260    2.4220 hc      1  R10       -0.0167
      6 H3         -1.3510   -1.0810    2.4360 hc      1  R10        0.0035
      7 H4         -1.2660    0.5700    3.0710 hc      1  R10       -0.0358
      8 C3         -0.5080    1.6960    0.5210 ca      1  R10       -0.0247
      9 C4         -0.6380    2.1590   -0.7870 ca      1  R10       -0.1453
     10 H5         -1.2480    1.6030   -1.4850 ha      1  R10        0.1093
     11 C5         -0.0020    3.3060   -1.2090 ca      1  R10       -0.3100
     12 H6         -0.1160    3.6470   -2.2280 ha      1  R10        0.1523
     13 C6          0.7910    4.0410   -0.3260 ca      1  R10        0.4997
     14 N2          1.4910    5.1480   -0.7600 nh      1  R10       -0.8336
     15 H7          1.1500    5.5900   -1.5990 hn      1  R10        0.3310
     16 H8          1.8010    5.7880   -0.0470 hn      1  R10        0.3310
     17 C7          0.9170    3.5840    0.9850 ca      1  R10       -0.3100
     18 H9          1.5240    4.1430    1.6830 ha      1  R10        0.1523
     19 C8          0.2780    2.4300    1.3980 ca      1  R10       -0.1453
     20 H10         0.3980    2.1120    2.4210 ha      1  R10        0.1093
     21 CA          0.3700   -0.9840   -0.3440 c3      1  R10        0.0653
     22 H11         1.0410   -0.2330    0.0790 h1      1  R10        0.0301
     23 H12         0.5210   -1.0450   -1.4250 h1      1  R10        0.0301
     24 C           0.6360   -2.3560    0.2840 c       1  R10        0.5601
     25 O          -0.0990   -2.8260    1.1300 o       1  R10       -0.5409
@<TRIPOS>BOND
     1    12    11    1
     2    15    14    1
     3    10     9    1
     4    23    21    1
     5    11     9   ar
     6    11    13   ar
     7     9     8   ar
     8    14    13    1
     9    14    16    1
    10    21     1    1
    11    21    22    1
    12    21    24    1
    13    13    17   ar
    14     1     2    1
    15    24    25    2
    16     8     2    1
    17     8    19   ar
    18     3     2    1
    19     2     4    1
    20    17    19   ar
    21    17    18    1
    22    19    20    1
    23     4     5    1
    24     4     6    1
    25     4     7    1
@<TRIPOS>SUBSTRUCTURE
      1 R10               1 ****               0 ****  ****
@<TRIPOS>HEADTAIL
N  1
C  1
@<TRIPOS>RESIDUECONNECT
1 N C 0 0 0 0
