@<TRIPOS>MOLECULE
R11
 17 17 0 0 0
SMALL
GASTEIGER

@<TRIPOS>ATOM
      1 N          -0.5690    0.2500    0.2600 n       1  R11       -0.3158
      2 C1         -0.0320    1.5580    0.1730 ca      1  R11        0.3777
      3 C2         -0.7780    2.6490    0.6080 ca      1  R11       -0.2049
      4 H1         -1.7700    2.4960    1.0060 ha      1  R11        0.1165
      5 C3         -0.2410    3.9220    0.5420 ca      1  R11       -0.1064
      6 H2         -0.8250    4.7650    0.8800 ha      1  R11        0.1082
      7 C4          1.0420    4.1130    0.0570 ca      1  R11       -0.1031
      8 H3          1.4580    5.1080    0.0090 ha      1  R11        0.0925
      9 C5          1.7900    3.0250   -0.3590 ca      1  R11       -0.1064
     10 H4          2.7930    3.1690   -0.7340 ha      1  R11        0.1082
     11 C6          1.2610    1.7480   -0.3020 ca      1  R11       -0.2049
     12 H5          1.8310    0.8920   -0.6290 ha      1  R11        0.1165
     13 CA          0.1670   -0.7420    1.0320 c3      1  R11        0.0195
     14 H6         -0.5300   -1.2420    1.7040 h1      1  R11        0.0245
     15 H7          0.9300   -0.2200    1.6120 h1      1  R11        0.0245
     16 C           0.8860   -1.7280    0.0980 c       1  R11        0.6069
     17 O           1.7300   -1.3140   -0.6820 o       1  R11       -0.5535
@<TRIPOS>BOND
     1    10     9    1
     2    17    16    2
     3    12    11    1
     4     9    11   ar
     5     9     7   ar
     6    11     2   ar
     7     8     7    1
     8     7     5   ar
     9    16    13    1
    10     2     1    1
    11     2     3   ar
    12     1    13    1
    13     5     3   ar
    14     5     6    1
    15     3     4    1
    16    13    15    1
    17    13    14    1
@<TRIPOS>SUBSTRUCTURE
      1 R11               1 ****               0 ****  ****
@<TRIPOS>HEADTAIL
N  1
C  1
@<TRIPOS>RESIDUECONNECT
1 N C 0 0 0 0