@<TRIPOS>MOLECULE
R12
 26 26 0 0 0
SMALL
GASTEIGER

@<TRIPOS>ATOM
      1 N          -0.9960    0.8220   -0.2610 n       1  R12       -0.3137
      2 C1         -0.9740   -0.5950   -0.3010 ca      1  R12        0.4094
      3 C2         -2.1030   -1.3000   -0.7000 ca      1  R12       -0.2860
      4 H1         -3.0040   -0.7720   -0.9730 ha      1  R12        0.1315
      5 C3         -2.0550   -2.6810   -0.7550 ca      1  R12       -0.0556
      6 H2         -2.9300   -3.2340   -1.0630 ha      1  R12        0.0848
      7 C4         -0.8920   -3.3570   -0.4320 ca      1  R12       -0.1985
      8 H3         -0.8760   -4.4350   -0.4840 ha      1  R12        0.1280
      9 C5          0.2500   -2.6600   -0.0500 ca      1  R12        0.0171
     10 C6          1.5290   -3.3790    0.3000 c3      1  R12        0.4889
     11 H4          2.2790   -2.6260    0.5590 hc      1  R12       -0.0910
     12 C7          1.3250   -4.2880    1.5130 c3      1  R12       -0.1862
     13 H5          0.6020   -5.0710    1.2950 hc      1  R12        0.0188
     14 H6          0.9620   -3.7110    2.3610 hc      1  R12        0.0188
     15 H7          2.2650   -4.7580    1.7930 hc      1  R12        0.0188
     16 C8          2.0480   -4.1790   -0.8970 c3      1  R12       -0.1862
     17 H8          1.3490   -4.9650   -1.1720 hc      1  R12        0.0188
     18 H9          3.0030   -4.6400   -0.6540 hc      1  R12        0.0188
     19 H10         2.1880   -3.5270   -1.7560 hc      1  R12        0.0188
     20 C9          0.1960   -1.2750    0.0100 ca      1  R12       -0.3443
     21 H11         1.0640   -0.7050    0.3070 ha      1  R12        0.1725
     22 CA         -0.0310    1.5460   -1.0790 c3      1  R12        0.1004
     23 H12        -0.5600    2.3230   -1.6290 h1      1  R12       -0.0011
     24 H13         0.4150    0.8360   -1.7780 h1      1  R12       -0.0011
     25 C           1.1000    2.1140   -0.2090 c       1  R12        0.6163
     26 O           1.8210    1.3530    0.4180 o       1  R12       -0.5980
@<TRIPOS>BOND
     1    24    22    1
     2    19    16    1
     3    23    22    1
     4    17    16    1
     5    22     1    1
     6    22    25    1
     7     6     5    1
     8     4     3    1
     9    16    18    1
    10    16    10    1
    11     5     3   ar
    12     5     7   ar
    13     3     2   ar
    14     8     7    1
    15     7     9   ar
    16     2     1    1
    17     2    20   ar
    18    25    26    2
    19     9    20   ar
    20     9    10    1
    21    20    21    1
    22    10    11    1
    23    10    12    1
    24    13    12    1
    25    12    15    1
    26    12    14    1
@<TRIPOS>SUBSTRUCTURE
      1 R12               1 ****               0 ****  ****
@<TRIPOS>HEADTAIL
N  1
C  1
@<TRIPOS>RESIDUECONNECT
1 N C 0 0 0 0