@<TRIPOS>MOLECULE
R13
 18 18 0 0 0
SMALL
GASTEIGER

@<TRIPOS>ATOM
      1 N           0.9210    0.0090    0.2850 n       1  R13       -0.2392
      2 C1          0.4100   -1.3040    0.2540 ca      1  R13        0.3348
      3 C2          1.1910   -2.3690    0.6990 ca      1  R13       -0.3446
      4 H1          2.1940   -2.1900    1.0520 ha      1  R13        0.1316
      5 C3          0.6680   -3.6470    0.7000 ca      1  R13        0.0534
      6 H2          1.2730   -4.4740    1.0420 ha      1  R13        0.0975
      7 C4         -0.6300   -3.8800    0.2810 ca      1  R13       -0.4949
      8 H3         -1.0350   -4.8830    0.2890 ha      1  R13        0.1739
      9 C5         -1.4160   -2.8170   -0.1490 ca      1  R13        0.6055
     10 O1         -2.6980   -2.9890   -0.5630 oh      1  R13       -0.6560
     11 H4         -2.9310   -3.9250   -0.5320 ho      1  R13        0.4202
     12 C6         -0.8940   -1.5290   -0.1620 ca      1  R13       -0.4129
     13 H5         -1.5000   -0.7180   -0.5320 ha      1  R13        0.2021
     14 CA          0.1310    1.0490    0.9170 c3      1  R13        0.0054
     15 H6          0.8160    1.6730    1.4950 h1      1  R13        0.0288
     16 H7         -0.6070    0.5880    1.5770 h1      1  R13        0.0288
     17 C          -0.5770    1.8950   -0.1490 c       1  R13        0.6489
     18 O          -0.7800    1.4590   -1.2650 o       1  R13       -0.5833
@<TRIPOS>BOND
     1    18    17    2
     2    10    11    1
     3    10     9    1
     4    13    12    1
     5    12     9   ar
     6    12     2   ar
     7    17    14    1
     8     9     7   ar
     9     2     1    1
    10     2     3   ar
    11     7     8    1
    12     7     5   ar
    13     1    14    1
    14     3     5   ar
    15     3     4    1
    16     5     6    1
    17    14    15    1
    18    14    16    1
@<TRIPOS>SUBSTRUCTURE
      1 R13               1 ****               0 ****  ****
@<TRIPOS>HEADTAIL
N  1
C  1
@<TRIPOS>RESIDUECONNECT
1 N C 0 0 0 0