@<TRIPOS>MOLECULE
R14
 27 28 0 0 0
SMALL
GASTEIGER

@<TRIPOS>ATOM
      1 N          -1.0320   -1.6270    0.1930 n       1  R14       -0.2554
      2 C1         -1.4450   -0.2730    0.2180 ca      1  R14        0.2988
      3 C2         -2.7820    0.0480    0.4270 ca      1  R14       -0.1931
      4 H1         -3.5110   -0.7350    0.5650 ha      1  R14        0.1092
      5 C3         -3.1650    1.3770    0.4670 ca      1  R14       -0.1251
      6 H2         -4.2040    1.6290    0.6190 ha      1  R14        0.1060
      7 C4         -2.2270    2.3830    0.3230 ca      1  R14       -0.1079
      8 H3         -2.5420    3.4160    0.3390 ha      1  R14        0.0858
      9 C5         -0.8810    2.0730    0.1380 cp      1  R14        0.0545
     10 C6          0.1260    3.1340   -0.0070 cp      1  R14        0.1087
     11 C7          0.0480    4.2980    0.7540 ca      1  R14       -0.1490
     12 H4         -0.7480    4.4120    1.4760 ha      1  R14        0.1101
     13 C8          0.9960    5.2950    0.6160 ca      1  R14       -0.0973
     14 H5          0.9250    6.1900    1.2180 ha      1  R14        0.0885
     15 C9          2.0340    5.1480   -0.2890 ca      1  R14       -0.0779
     16 H6          2.7720    5.9290   -0.3980 ha      1  R14        0.0878
     17 C10         2.1220    3.9940   -1.0500 ca      1  R14       -0.0973
     18 H7          2.9300    3.8740   -1.7560 ha      1  R14        0.0885
     19 C11         1.1790    2.9940   -0.9090 ca      1  R14       -0.1490
     20 H8          1.2490    2.1010   -1.5120 ha      1  R14        0.1101
     21 C12        -0.5010    0.7350    0.0860 ca      1  R14       -0.2794
     22 H9          0.5350    0.4650   -0.0540 ha      1  R14        0.1970
     23 CA          0.0280   -2.0410    1.1020 c3      1  R14        0.0150
     24 H10        -0.2890   -2.9510    1.6090 h1      1  R14        0.0204
     25 H11         0.1770   -1.2440    1.8340 h1      1  R14        0.0204
     26 C           1.3470   -2.2280    0.3380 c       1  R14        0.6239
     27 O           1.8370   -1.2830   -0.2610 o       1  R14       -0.5933
@<TRIPOS>BOND
     1    18    17    1
     2    20    19    1
     3    17    19   ar
     4    17    15   ar
     5    19    10   ar
     6    16    15    1
     7    15    13   ar
     8    27    26    2
     9    22    21    1
    10    10     9    1
    11    10    11   ar
    12    21     9   ar
    13    21     2   ar
    14     9     7   ar
    15     1     2    1
    16     1    23    1
    17     2     3   ar
    18     7     8    1
    19     7     5   ar
    20    26    23    1
    21     3     5   ar
    22     3     4    1
    23     5     6    1
    24    13    11   ar
    25    13    14    1
    26    11    12    1
    27    23    24    1
    28    23    25    1
@<TRIPOS>SUBSTRUCTURE
      1 R14               1 ****               0 ****  ****
@<TRIPOS>HEADTAIL
N  1
C  1
@<TRIPOS>RESIDUECONNECT
1 N C 0 0 0 0