@<TRIPOS>MOLECULE
R15
 24 24 0 0 0
SMALL
GASTEIGER

@<TRIPOS>ATOM
      1 N           0.9260    0.5780    0.1860 n       1  R15       -0.2028
      2 C1          0.3880   -0.7230    0.1170 ca      1  R15        0.3094
      3 C2          1.1600   -1.8200    0.4820 ca      1  R15       -0.4620
      4 H1          2.1780   -1.6640    0.8030 ha      1  R15        0.1702
      5 C3          0.6410   -3.1060    0.4520 ca      1  R15        0.1061
      6 C4          1.5270   -4.2530    0.8460 c3      1  R15        0.1317
      7 H2          2.5170   -3.8890    1.1100 hc      1  R15       -0.0180
      8 H3          1.6330   -4.9610    0.0260 hc      1  R15       -0.0180
      9 H4          1.1190   -4.7820    1.7060 hc      1  R15       -0.0180
     10 C5         -0.6860   -3.3090    0.0710 ca      1  R15       -0.2366
     11 C6         -1.3140   -4.6770    0.0220 c3      1  R15        0.2371
     12 H5         -0.6110   -5.4450    0.3220 hc      1  R15       -0.0417
     13 H6         -1.6490   -4.9130   -0.9910 hc      1  R15       -0.0417
     14 H7         -2.1740   -4.7330    0.6930 hc      1  R15       -0.0417
     15 C7         -1.4620   -2.1980   -0.2770 ca      1  R15        0.3939
     16 O1         -2.7660   -2.3190   -0.6500 oh      1  R15       -0.5909
     17 H8         -3.0170   -3.2500   -0.6630 ho      1  R15        0.3956
     18 C8         -0.9320   -0.9150   -0.2570 ca      1  R15       -0.3680
     19 H9         -1.5480   -0.0880   -0.5670 ha      1  R15        0.2028
     20 CA          0.1810    1.5990    0.8950 c3      1  R15       -0.0974
     21 H10         0.8990    2.1930    1.4660 h1      1  R15        0.0522
     22 H11        -0.5310    1.1200    1.5700 h1      1  R15        0.0522
     23 C          -0.5630    2.5000   -0.0990 c       1  R15        0.6835
     24 O          -0.7940    2.1310   -1.2340 o       1  R15       -0.5979
@<TRIPOS>BOND
     1    24    23    2
     2    13    11    1
     3    17    16    1
     4    16    15    1
     5    19    18    1
     6    15    18   ar
     7    15    10   ar
     8    18     2   ar
     9    23    20    1
    10    11    10    1
    11    11    12    1
    12    11    14    1
    13     8     6    1
    14    10     5   ar
    15     2     1    1
    16     2     3   ar
    17     1    20    1
    18     5     3   ar
    19     5     6    1
    20     3     4    1
    21     6     7    1
    22     6     9    1
    23    20    21    1
    24    20    22    1
@<TRIPOS>SUBSTRUCTURE
      1 R15               1 ****               0 ****  ****
@<TRIPOS>HEADTAIL
N  1
C  1
@<TRIPOS>RESIDUECONNECT
1 N C 0 0 0 0