@<TRIPOS>MOLECULE
R16
 23 23 0 0 0
SMALL
GASTEIGER

@<TRIPOS>ATOM
      1 N          -0.7750   -0.0690    0.1300 n       1  R16       -0.1969
      2 C1          0.1490    0.9920   -0.1110 ca      1  R16        0.1663
      3 C2         -0.0880    2.2600    0.4190 ca      1  R16       -0.0561
      4 C3         -1.3020    2.5180    1.2570 c3      1  R16        0.0108
      5 H1         -1.6360    1.6040    1.7440 hc      1  R16        0.0062
      6 H2         -2.1150    2.8660    0.6190 hc      1  R16        0.0062
      7 H3         -1.1060    3.2690    2.0170 hc      1  R16        0.0062
      8 C4          0.8210    3.2850    0.1370 ca      1  R16        0.1528
      9 C5          0.5820    4.6780    0.6400 c3      1  R16       -0.0522
     10 H4         -0.4050    5.0260    0.3410 hc      1  R16        0.0209
     11 H5          1.3280    5.3600    0.2380 hc      1  R16        0.0209
     12 H6          0.6390    4.7140    1.7280 hc      1  R16        0.0209
     13 C6          1.9530    3.0110   -0.6160 ca      1  R16       -0.3094
     14 H7          2.6550    3.8060   -0.8250 ha      1  R16        0.1448
     15 C7          2.1930    1.7410   -1.1090 ca      1  R16       -0.0505
     16 H8          3.0760    1.5450   -1.6990 ha      1  R16        0.0918
     17 C8          1.2850    0.7310   -0.8650 ca      1  R16       -0.2137
     18 H9          1.4330   -0.2550   -1.2790 ha      1  R16        0.1143
     19 CA         -0.2470   -1.2360    0.7940 c3      1  R16        0.0931
     20 H10        -0.9840   -1.6270    1.5050 h1      1  R16       -0.0186
     21 H11         0.6380   -0.9230    1.3540 h1      1  R16       -0.0186
     22 C           0.1400   -2.3620   -0.1760 c       1  R16        0.6175
     23 O          -0.1410   -2.3230   -1.3570 o       1  R16       -0.5567
@<TRIPOS>BOND
     1    16    15    1
     2    23    22    2
     3    18    17    1
     4    15    17   ar
     5    15    13   ar
     6    17     2   ar
     7    14    13    1
     8    13     8   ar
     9    22    19    1
    10     2     1    1
    11     2     3   ar
    12     1    19    1
    13     8     3   ar
    14     8     9    1
    15    11     9    1
    16    10     9    1
    17     3     4    1
    18     6     4    1
    19     9    12    1
    20    19    21    1
    21    19    20    1
    22     4     5    1
    23     4     7    1
@<TRIPOS>SUBSTRUCTURE
      1 R16               1 ****               0 ****  ****
@<TRIPOS>HEADTAIL
N  1
C  1
@<TRIPOS>RESIDUECONNECT
1 N C 0 0 0 0