@<TRIPOS>MOLECULE
R17
 26 27 0 0 0
SMALL
GASTEIGER

@<TRIPOS>ATOM
      1 N           0.6160    0.7250    0.1880 n       1  R17       -0.3041
      2 C1          0.0930   -0.5980    0.1830 ce      1  R17        0.4289
      3 C2          0.7590   -1.6110    0.7490 c2      1  R17       -0.5155
      4 H1          1.7080   -1.4720    1.2450 ha      1  R17        0.1405
      5 C3          0.1020   -2.9540    0.7580 c3      1  R17        0.4549
      6 H2         -0.6280   -2.9630    1.5830 hc      1  R17       -0.0950
      7 C4          0.9430   -4.2230    0.8500 c3      1  R17       -0.0956
      8 H3          1.2790   -4.4320    1.8650 hc      1  R17       -0.0029
      9 H4          1.8240   -4.1290    0.2130 hc      1  R17       -0.0029
     10 C5          0.0010   -5.3210    0.3100 c3      1  R17        0.0515
     11 H5         -0.3700   -5.9470    1.1210 hc      1  R17       -0.0133
     12 H6          0.5310   -5.9690   -0.3870 hc      1  R17       -0.0133
     13 C6         -1.1670   -4.5950   -0.3930 c3      1  R17       -0.0956
     14 H7         -2.0570   -4.6020    0.2390 hc      1  R17        0.0044
     15 H8         -1.4230   -5.0580   -1.3450 hc      1  R17        0.0044
     16 C7         -0.6590   -3.1660   -0.5500 c3      1  R17        0.2662
     17 H9          0.0680   -3.1470   -1.3770 hc      1  R17       -0.0493
     18 C8         -1.6160   -2.0340   -0.7610 c2      1  R17       -0.2877
     19 H10        -2.5650   -2.2230   -1.2380 ha      1  R17        0.1270
     20 C9         -1.2220   -0.8060   -0.4220 ce      1  R17       -0.2699
     21 H11        -1.8260    0.0720   -0.5950 ha      1  R17        0.1665
     22 CA         -0.0070    1.6980    1.0730 c3      1  R17        0.0781
     23 H12         0.7750    2.2100    1.6350 h1      1  R17        0.0033
     24 H13        -0.6590    1.1550    1.7600 h1      1  R17        0.0033
     25 C          -0.8860    2.6760    0.2790 c       1  R17        0.6080
     26 O          -1.8620    2.2580   -0.3240 o       1  R17       -0.5919
@<TRIPOS>BOND
     1    17    16    1
     2    15    13    1
     3    19    18    1
     4    18    16    1
     5    18    20    2
     6    21    20    1
     7    16    13    1
     8    16     5    1
     9    20     2    1
    10    13    14    1
    11    13    10    1
    12    12    10    1
    13    26    25    2
    14     2     1    1
    15     2     3    2
    16     1    22    1
    17     9     7    1
    18    25    22    1
    19    10     7    1
    20    10    11    1
    21     3     5    1
    22     3     4    1
    23     5     7    1
    24     5     6    1
    25     7     8    1
    26    22    23    1
    27    22    24    1
@<TRIPOS>SUBSTRUCTURE
      1 R17               1 ****               0 ****  ****
@<TRIPOS>HEADTAIL
N  1
C  1
@<TRIPOS>RESIDUECONNECT
1 N C 0 0 0 0