@<TRIPOS>MOLECULE
R18
 19 19 0 0 0
SMALL
GASTEIGER

@<TRIPOS>ATOM
      1 N           0.8290   -0.0470    0.2090 n       1  R18       -0.2073
      2 C1         -0.1340    0.9770   -0.0540 ca      1  R18        0.1545
      3 C2          0.1040    2.3220    0.2210 ca      1  R18        0.0963
      4 O1          1.2820    2.8260    0.6930 oh      1  R18       -0.6078
      5 H1          2.0040    2.3320    0.2370 ho      1  R18        0.4340
      6 C3         -0.9260    3.2620    0.0330 ca      1  R18        0.4562
      7 O2         -0.6800    4.5590    0.3290 oh      1  R18       -0.6200
      8 H2          0.2510    4.6110    0.6040 ho      1  R18        0.4319
      9 C4         -2.1660    2.8660   -0.4340 ca      1  R18       -0.3703
     10 H3         -2.9350    3.6090   -0.5670 ha      1  R18        0.1974
     11 C5         -2.3820    1.5330   -0.7370 ca      1  R18       -0.0912
     12 H4         -3.3390    1.2200   -1.1270 ha      1  R18        0.1158
     13 C6         -1.3840    0.6010   -0.5480 ca      1  R18       -0.2638
     14 H5         -1.5590   -0.4300   -0.8110 ha      1  R18        0.1367
     15 CA          0.2940   -1.2390    0.8320 c3      1  R18       -0.0271
     16 H6         -0.6050   -0.9480    1.3790 h1      1  R18        0.0341
     17 H7          1.0200   -1.6360    1.5480 h1      1  R18        0.0341
     18 C          -0.0430   -2.3400   -0.1840 c       1  R18        0.6520
     19 O           0.3790   -2.3100   -1.3230 o       1  R18       -0.5555
@<TRIPOS>BOND
     1    19    18    2
     2    12    11    1
     3    14    13    1
     4    11    13   ar
     5    11     9   ar
     6    10     9    1
     7    13     2   ar
     8     9     6   ar
     9    18    15    1
    10     2     1    1
    11     2     3   ar
    12     6     3   ar
    13     6     7    1
    14     1    15    1
    15     3     4    1
    16     5     4    1
    17     7     8    1
    18    15    16    1
    19    15    17    1
@<TRIPOS>SUBSTRUCTURE
      1 R18               1 ****               0 ****  ****
@<TRIPOS>HEADTAIL
N  1
C  1
@<TRIPOS>RESIDUECONNECT
1 N C 0 0 0 0