@<TRIPOS>MOLECULE
R19
 23 24 0 0 0
SMALL
GASTEIGER

@<TRIPOS>ATOM
      1 N           0.6280   -0.8090   -0.1860 n       1  R19       -0.2793
      2 C1          0.1180    0.5010   -0.0630 ca      1  R19        0.4100
      3 C2          0.8920    1.5890   -0.3790 ca      1  R19       -0.4218
      4 H1          1.9090    1.4560   -0.7180 ha      1  R19        0.1536
      5 C3          0.3740    2.8950   -0.2750 ca      1  R19        0.2279
      6 C4          1.1490    4.0320   -0.5860 ca      1  R19       -0.2277
      7 H2          2.1700    3.8920   -0.9100 ha      1  R19        0.1238
      8 C5          0.6190    5.2880   -0.4820 ca      1  R19       -0.0412
      9 H3          1.2190    6.1540   -0.7220 ha      1  R19        0.0779
     10 C6         -0.7080    5.4650   -0.0610 ca      1  R19       -0.1089
     11 H4         -1.1090    6.4650    0.0180 ha      1  R19        0.0982
     12 C7         -1.4850    4.3830    0.2450 ca      1  R19       -0.1818
     13 H5         -2.5080    4.5140    0.5690 ha      1  R19        0.1195
     14 C8         -0.9700    3.0750    0.1460 ca      1  R19        0.0772
     15 C9         -1.7430    1.9350    0.4550 ca      1  R19       -0.1693
     16 H6         -2.7630    2.0730    0.7830 ha      1  R19        0.1256
     17 C10        -1.2180    0.6790    0.3540 ca      1  R19       -0.2522
     18 H7         -1.7940   -0.1940    0.6210 ha      1  R19        0.1608
     19 CA         -0.1140   -1.7800   -0.9750 c3      1  R19        0.0505
     20 H8          0.5940   -2.2600   -1.6500 h1      1  R19        0.0060
     21 H9         -0.8860   -1.2620   -1.5470 h1      1  R19        0.0060
     22 C          -0.7770   -2.7960   -0.0330 c       1  R19        0.6506
     23 O          -1.3360   -2.4100    0.9790 o       1  R19       -0.6054
@<TRIPOS>BOND
     1    20    19    1
     2    21    19    1
     3    19     1    1
     4    19    22    1
     5     7     6    1
     6     9     8    1
     7     4     3    1
     8     6     8   ar
     9     6     5   ar
    10     8    10   ar
    11     3     5   ar
    12     3     2   ar
    13     5    14   ar
    14     1     2    1
    15     2    17   ar
    16    10    11    1
    17    10    12   ar
    18    22    23    2
    19    14    12   ar
    20    14    15   ar
    21    12    13    1
    22    17    15   ar
    23    17    18    1
    24    15    16    1
@<TRIPOS>SUBSTRUCTURE
      1 R19               1 ****               0 ****  ****
@<TRIPOS>HEADTAIL
N  1
C  1
@<TRIPOS>RESIDUECONNECT
1 N C 0 0 0 0