@<TRIPOS>MOLECULE
R20
 20 20 0 0 0
SMALL
GASTEIGER

@<TRIPOS>ATOM
      1 N          -0.7460    0.1980   -0.1970 n       1  R20       -0.3070
      2 C1          0.0430   -0.6770   -1.0300 c3      1  R20        0.1719
      3 H1          0.9640   -0.1460   -1.2860 hc      1  R20        0.0122
      4 H2         -0.4770   -0.8610   -1.9740 hc      1  R20        0.0122
      5 C2          0.3900   -1.9980   -0.3810 ca      1  R20        0.1195
      6 C3         -0.0070   -2.3160    0.9100 ca      1  R20       -0.1819
      7 H3         -0.5950   -1.6140    1.4840 ha      1  R20        0.0957
      8 C4          0.3360   -3.5360    1.4690 ca      1  R20       -0.0673
      9 H4          0.0170   -3.7710    2.4740 ha      1  R20        0.0926
     10 C5          1.0800   -4.4510    0.7450 ca      1  R20       -0.1358
     11 H5          1.3450   -5.4020    1.1820 ha      1  R20        0.0985
     12 C6          1.4810   -4.1400   -0.5440 ca      1  R20       -0.0673
     13 H6          2.0610   -4.8490   -1.1160 ha      1  R20        0.0926
     14 C7          1.1380   -2.9230   -1.1010 ca      1  R20       -0.1819
     15 H7          1.4510   -2.6810   -2.1070 ha      1  R20        0.0957
     16 CA         -0.0420    1.1990    0.5700 c3      1  R20        0.1391
     17 H8          0.7990    0.7390    1.1040 h1      1  R20        0.0012
     18 H9         -0.7600    1.6010    1.2900 h1      1  R20        0.0012
     19 C           0.4780    2.3220   -0.3290 c       1  R20        0.5906
     20 O           0.5080    2.2160   -1.5410 o       1  R20       -0.5818
@<TRIPOS>BOND
     1    15    14    1
     2     4     2    1
     3    20    19    2
     4     3     2    1
     5    13    12    1
     6    14    12   ar
     7    14     5   ar
     8     2     5    1
     9     2     1    1
    10    12    10   ar
    11     5     6   ar
    12    19    16    1
    13     1    16    1
    14    16    17    1
    15    16    18    1
    16    10    11    1
    17    10     8   ar
    18     6     8   ar
    19     6     7    1
    20     8     9    1
@<TRIPOS>SUBSTRUCTURE
      1 R20               1 ****               0 ****  ****
@<TRIPOS>HEADTAIL
N  1
C  1
@<TRIPOS>RESIDUECONNECT
1 N C 0 0 0 0