@<TRIPOS>MOLECULE
R21
 20 20 0 0 0
SMALL
GASTEIGER

@<TRIPOS>ATOM
      1 N           0.6790    0.7260   -0.6050 n       1  R21       -0.2932
      2 C1         -0.2930    0.0390   -1.4170 c3      1  R21        0.1125
      3 H1          0.0600   -0.0210   -2.4500 hc      1  R21        0.0385
      4 H2         -1.2010    0.6480   -1.4370 hc      1  R21        0.0385
      5 C2         -0.6320   -1.3510   -0.9260 ca      1  R21        0.1475
      6 C3          0.0580   -1.9410    0.1230 ca      1  R21       -0.2358
      7 H3          0.8630   -1.4180    0.6160 ha      1  R21        0.1361
      8 C4         -0.2860   -3.2170    0.5400 ca      1  R21        0.2276
      9 CL          0.5830   -3.9370    1.8520 cl      1  R21       -0.1729
     10 C5         -1.3070   -3.9220   -0.0730 ca      1  R21       -0.2228
     11 H4         -1.5600   -4.9140    0.2640 ha      1  R21        0.1364
     12 C6         -1.9910   -3.3290   -1.1210 ca      1  R21       -0.0036
     13 H5         -2.7890   -3.8680   -1.6080 ha      1  R21        0.0986
     14 C7         -1.6600   -2.0550   -1.5440 ca      1  R21       -0.2958
     15 H6         -2.1990   -1.5980   -2.3600 ha      1  R21        0.1360
     16 CA          0.1740    1.5150    0.4960 c3      1  R21        0.0968
     17 H7          1.0370    1.7670    1.1170 h1      1  R21        0.0158
     18 H8         -0.5410    0.9240    1.0800 h1      1  R21        0.0158
     19 C          -0.5040    2.7930    0.0010 c       1  R21        0.6076
     20 O          -0.8170    2.9450   -1.1660 o       1  R21       -0.5836
@<TRIPOS>BOND
     1     3     2    1
     2    15    14    1
     3    13    12    1
     4    14    12   ar
     5    14     5   ar
     6     4     2    1
     7     2     5    1
     8     2     1    1
     9    20    19    2
    10    12    10   ar
    11     5     6   ar
    12     1    16    1
    13    10    11    1
    14    10     8   ar
    15    19    16    1
    16     6     8   ar
    17     6     7    1
    18    16    18    1
    19    16    17    1
    20     8     9    1
@<TRIPOS>SUBSTRUCTURE
      1 R21               1 ****               0 ****  ****
@<TRIPOS>HEADTAIL
N  1
C  1
@<TRIPOS>RESIDUECONNECT
1 N C 0 0 0 0