@<TRIPOS>MOLECULE
R22
 23 23 0 0 0
SMALL
GASTEIGER

@<TRIPOS>ATOM
      1 N          -0.8360   -0.3810   -0.3090 n       1  R22       -0.3314
      2 C1          0.0550    0.5860   -0.9020 c3      1  R22        0.3113
      3 H1         -0.2880    0.8330   -1.9100 hc      1  R22       -0.0049
      4 H2          1.0290    0.1020   -1.0200 hc      1  R22       -0.0049
      5 C2          0.2110    1.8550   -0.0950 ca      1  R22       -0.0464
      6 C3          1.1210    2.8280   -0.5220 ca      1  R22        0.0860
      7 C4          1.9320    2.6270   -1.7650 c3      1  R22       -0.1317
      8 H3          2.5490    1.7320   -1.6850 hc      1  R22        0.0420
      9 H4          2.5830    3.4800   -1.9400 hc      1  R22        0.0420
     10 H5          1.2850    2.5020   -2.6320 hc      1  R22        0.0420
     11 C5          1.2630    3.9900    0.2250 ca      1  R22       -0.1770
     12 H6          1.9650    4.7430   -0.1020 ha      1  R22        0.1189
     13 C6          0.5220    4.1990    1.3740 ca      1  R22       -0.1315
     14 H7          0.6470    5.1100    1.9400 ha      1  R22        0.1151
     15 C7         -0.3790    3.2360    1.7920 ca      1  R22       -0.1084
     16 H8         -0.9660    3.3880    2.6850 ha      1  R22        0.0915
     17 C8         -0.5300    2.0730    1.0570 ca      1  R22       -0.1518
     18 H9         -1.2410    1.3280    1.3850 ha      1  R22        0.1135
     19 CA         -0.2490   -1.3540    0.5840 c3      1  R22        0.0031
     20 H10        -1.0800   -1.8410    1.1010 h1      1  R22        0.0399
     21 H11         0.3940   -0.8480    1.3150 h1      1  R22        0.0399
     22 C           0.5710   -2.3930   -0.1800 c       1  R22        0.6490
     23 O           0.9070   -2.2280   -1.3380 o       1  R22       -0.6062
@<TRIPOS>BOND
     1    10     7    1
     2     9     7    1
     3     3     2    1
     4     7     8    1
     5     7     6    1
     6    23    22    2
     7     4     2    1
     8     2     1    1
     9     2     5    1
    10     6     5   ar
    11     6    11   ar
    12     1    19    1
    13    22    19    1
    14    12    11    1
    15     5    17   ar
    16    11    13   ar
    17    19    20    1
    18    19    21    1
    19    17    18    1
    20    17    15   ar
    21    13    15   ar
    22    13    14    1
    23    15    16    1
@<TRIPOS>SUBSTRUCTURE
      1 R22               1 ****               0 ****  ****
@<TRIPOS>HEADTAIL
N  1
C  1
@<TRIPOS>RESIDUECONNECT
1 N C 0 0 0 0