@<TRIPOS>MOLECULE
R23
 20 20 0 0 0
SMALL
GASTEIGER

@<TRIPOS>ATOM
      1 N          -0.7670   -0.5830   -0.4630 n       1  R23       -0.2667
      2 C1          0.1880    0.4710   -0.6920 c3      1  R23        0.1399
      3 H1          0.2070    0.7400   -1.7520 hc      1  R23        0.0315
      4 H2          1.1830    0.0790   -0.4620 hc      1  R23        0.0315
      5 C2         -0.0670    1.7090    0.1350 ca      1  R23        0.1055
      6 C3          0.8000    2.7960    0.0400 ca      1  R23        0.0419
      7 Cl          2.1580    2.7110   -1.0320 cl      1  R23       -0.1430
      8 C4          0.6010    3.9480    0.7810 ca      1  R23       -0.0980
      9 H3          1.2900    4.7720    0.6820 ca      1  R23        0.1148
     10 C5         -0.4810    4.0280    1.6390 ca      1  R23       -0.1143
     11 H4         -0.6400    4.9250    2.2190 ha      1  R23        0.1107
     12 C6         -1.3540    2.9610    1.7490 ca      1  R23       -0.1233
     13 H5         -2.2020    3.0190    2.4150 ha      1  R23        0.1108
     14 C7         -1.1460    1.8140    1.0020 ca      1  R23       -0.1824
     15 H6         -1.8370    0.9880    1.0880 ha      1  R23        0.1142
     16 CA         -0.4230   -1.5880    0.5160 c3      1  R23        0.0104
     17 H7         -1.3370   -2.1520    0.7190 h1      1  R23        0.0383
     18 H8         -0.0730   -1.1070    1.4370 h1      1  R23        0.0383
     19 C           0.6620   -2.5270   -0.0160 c       1  R23        0.6193
     20 O           1.3030   -2.2650   -1.0160 o       1  R23       -0.5794
@<TRIPOS>BOND
     1     3     2    1
     2     7     6    1
     3    20    19    2
     4     2     1    1
     5     2     4    1
     6     2     5    1
     7     1    16    1
     8    19    16    1
     9     6     5   ar
    10     6     8   ar
    11     5    14   ar
    12    16    17    1
    13    16    18    1
    14     9     8    1
    15     8    10   ar
    16    14    15    1
    17    14    12   ar
    18    10    12   ar
    19    10    11    1
    20    12    13    1
@<TRIPOS>SUBSTRUCTURE
      1 R23               1 ****               0 ****  ****
@<TRIPOS>HEADTAIL
N  1
C  1
@<TRIPOS>RESIDUECONNECT
1 N C 0 0 0 0