@<TRIPOS>MOLECULE
R24
 21 21 0 0 0
SMALL
GASTEIGER

@<TRIPOS>ATOM
      1 N          -0.7700    0.4540   -0.3810 n       1  R24       -0.2649
      2 C1          0.0330   -0.3320   -1.2850 c3      1  R24        0.1265
      3 H1          0.9310    0.2450   -1.5190 hc      1  R24        0.0177
      4 H2         -0.4990   -0.4740   -2.2290 hc      1  R24        0.0177
      5 C2          0.4320   -1.6810   -0.7260 ca      1  R24        0.2856
      6 C3         -0.0950   -2.1610    0.4630 ca      1  R24       -0.5139
      7 H3         -0.8080   -1.5690    1.0230 ha      1  R24        0.1650
      8 C4          0.2820   -3.4070    0.9510 ca      1  R24        0.5878
      9 O1         -0.2210   -3.9010    2.1130 oh      1  R24       -0.6310
     10 H4         -0.8540   -3.2770    2.4890 ho      1  R24        0.3996
     11 C5          1.1960   -4.1800    0.2430 ca      1  R24       -0.3781
     12 H5          1.4770   -5.1440    0.6360 ha      1  R24        0.1752
     13 C6          1.7190   -3.7000   -0.9420 ca      1  R24        0.0644
     14 H6          2.4280   -4.3000   -1.4920 ha      1  R24        0.0777
     15 C7          1.3440   -2.4600   -1.4270 ca      1  R24       -0.4031
     16 H7          1.7570   -2.0900   -2.3540 ha      1  R24        0.1524
     17 CA         -0.0670    1.3420    0.5160 c3      1  R24       -0.0272
     18 H8          0.7600    0.8070    0.9970 h1      1  R24        0.0472
     19 H9         -0.7900    1.6600    1.2720 h1      1  R24        0.0472
     20 C           0.4780    2.5610   -0.2300 c       1  R24        0.6347
     21 O           0.5170    2.6070   -1.4450 o       1  R24       -0.5805
@<TRIPOS>BOND
     1    16    15    1
     2     4     2    1
     3     3     2    1
     4    14    13    1
     5    21    20    2
     6    15    13   ar
     7    15     5   ar
     8     2     5    1
     9     2     1    1
    10    13    11   ar
    11     5     6   ar
    12     1    17    1
    13    20    17    1
    14    11    12    1
    15    11     8   ar
    16     6     8   ar
    17     6     7    1
    18    17    18    1
    19    17    19    1
    20     8     9    1
    21     9    10    1
@<TRIPOS>SUBSTRUCTURE
      1 R24               1 ****               0 ****  ****
@<TRIPOS>HEADTAIL
N  1
C  1
@<TRIPOS>RESIDUECONNECT
1 N C 0 0 0 0