@<TRIPOS>MOLECULE
R25
 20 20 0 0 0
SMALL
GASTEIGER

@<TRIPOS>ATOM
      1 N          -1.2070    0.2270    0.0140 n       1  R25       -0.3208
      2 C1         -0.6150   -0.5850    1.0590 c3      1  R25        0.3137
      3 H1         -1.4010   -1.0860    1.6220 hc      1  R25        0.0014
      4 H2         -0.0560    0.0680    1.7360 hc      1  R25        0.0014
      5 C2          0.3120   -1.6240    0.4730 ca      1  R25       -0.3332
      6 C3          1.6840   -1.4220    0.3600 ca      1  R25        0.4716
      7 F1          2.2120   -0.2690    0.8170 f       1  R25       -0.2459
      8 C4          2.5400   -2.3530   -0.2000 ca      1  R25       -0.4087
      9 H3          3.5940   -2.1340   -0.2560 ha      1  R25        0.1846
     10 C5          2.0220   -3.5440   -0.6740 ca      1  R25        0.0615
     11 H4          2.6760   -4.2790   -1.1140 ha      1  R25        0.1056
     12 C6          0.6640   -3.7960   -0.5800 ca      1  R25       -0.4087
     13 H5          0.2350   -4.7190   -0.9360 ha      1  R25        0.1846
     14 C7         -0.1580   -2.8400   -0.0140 ca      1  R25        0.4716
     15 F2         -1.4740   -3.1070    0.0840 f       1  R25       -0.2459
     16 CA         -0.3040    1.1250   -0.6730 c3      1  R25        0.0513
     17 H6         -0.8620    1.5320   -1.5220 h1      1  R25        0.0368
     18 H7          0.5690    0.5720   -1.0330 h1      1  R25        0.0368
     19 C           0.1250    2.2690    0.2490 c       1  R25        0.6184
     20 O          -0.2600    2.3290    1.4020 o       1  R25       -0.5761
@<TRIPOS>BOND
     1    17    16    1
     2    11    10    1
     3    18    16    1
     4    13    12    1
     5    10    12   ar
     6    10     8   ar
     7    16     1    1
     8    16    19    1
     9    12    14   ar
    10     9     8    1
    11     8     6   ar
    12    14    15    1
    13    14     5   ar
    14     1     2    1
    15    19    20    2
    16     6     5   ar
    17     6     7    1
    18     5     2    1
    19     2     3    1
    20     2     4    1
@<TRIPOS>SUBSTRUCTURE
      1 R25               1 ****               0 ****  ****
@<TRIPOS>HEADTAIL
N  1
C  1
@<TRIPOS>RESIDUECONNECT
1 N C 0 0 0 0