@<TRIPOS>MOLECULE
R26
 20 20 0 0 0
SMALL
GASTEIGER

@<TRIPOS>ATOM
      1 N          -0.8090   -0.3910   -0.3070 n       1  R26       -0.2703
      2 C1          0.0750    0.5810   -0.8970 c3      1  R26        0.1633
      3 H1         -0.2520    0.8260   -1.9110 hc      1  R26        0.0371
      4 H2          1.0640    0.1250   -1.0010 hc      1  R26        0.0371
      5 C2          0.1910    1.8530   -0.0900 ca      1  R26       -0.0243
      6 C3          1.0880    2.8380   -0.4910 ca      1  R26        0.2926
      7 F1          1.8320    2.6210   -1.5990 f       1  R26       -0.2531
      8 C4          1.2470    4.0260    0.1940 ca      1  R26       -0.1925
      9 H3          1.9570    4.7540   -0.1640 ha      1  R26        0.1451
     10 C5          0.4840    4.2490    1.3280 ca      1  R26       -0.1184
     11 H4          0.5950    5.1720    1.8750 ha      1  R26        0.1151
     12 C6         -0.4170    3.2890    1.7530 ca      1  R26       -0.1244
     13 H5         -1.0140    3.4610    2.6350 ha      1  R26        0.1068
     14 C7         -0.5610    2.1040    1.0500 ca      1  R26       -0.1635
     15 H6         -1.2710    1.3640    1.3880 ha      1  R26        0.1240
     16 CA         -0.2160   -1.3660    0.5800 c3      1  R26        0.0080
     17 H7         -1.0410   -1.8510    1.1080 h1      1  R26        0.0374
     18 H8          0.4410   -0.8650    1.3010 h1      1  R26        0.0374
     19 C           0.5820   -2.4090   -0.2060 c       1  R26        0.6280
     20 O           0.8590   -2.2530   -1.3800 o       1  R26       -0.5854
@<TRIPOS>BOND
     1     3     2    1
     2     7     6    1
     3    20    19    2
     4     4     2    1
     5     2     1    1
     6     2     5    1
     7     6     5   ar
     8     6     8   ar
     9     1    16    1
    10    19    16    1
    11     9     8    1
    12     5    14   ar
    13     8    10   ar
    14    16    17    1
    15    16    18    1
    16    14    15    1
    17    14    12   ar
    18    10    12   ar
    19    10    11    1
    20    12    13    1
@<TRIPOS>SUBSTRUCTURE
      1 R26               1 ****               0 ****  ****
@<TRIPOS>HEADTAIL
N  1
C  1
@<TRIPOS>RESIDUECONNECT
1 N C 0 0 0 0