@<TRIPOS>MOLECULE
R27
 20 20 0 0 0
SMALL
GASTEIGER

@<TRIPOS>ATOM
      1 N          -0.5520   -1.9230    0.4810 n       1  R27       -0.3888
      2 C1         -1.3720   -1.0010    1.2430 c3      1  R27        0.4338
      3 H1         -1.0240   -1.0190    2.2840 hc      1  R27       -0.0614
      4 H2         -2.4090   -1.3300    1.2200 hc      1  R27       -0.0614
      5 C2         -1.2770    0.4080    0.7100 ca      1  R27       -0.1912
      6 C3         -0.3410    1.3040    1.2130 ca      1  R27        0.3657
      7 F1          0.4500    0.9290    2.2470 f       1  R27       -0.2301
      8 C4         -0.1700    2.5760    0.7040 ca      1  R27       -0.4536
      9 H3          0.5700    3.2440    1.1150 ha      1  R27        0.2124
     10 C5         -0.9710    2.9530   -0.3570 ca      1  R27        0.5578
     11 F2         -0.8170    4.1840   -0.8760 f       1  R27       -0.2974
     12 C6         -1.9240    2.1040   -0.8880 ca      1  R27       -0.2745
     13 H4         -2.5290    2.4300   -1.7180 ha      1  R27        0.1522
     14 C7         -2.0670    0.8400   -0.3480 ca      1  R27       -0.1571
     15 H5         -2.7960    0.1660   -0.7680 ha      1  R27        0.1666
     16 CA          0.8720   -1.6690    0.5120 c3      1  R27        0.1104
     17 H6          1.3730   -2.6060    0.2480 h1      1  R27        0.0285
     18 H7          1.1640   -1.3620    1.5170 h1      1  R27        0.0285
     19 C           1.2600   -0.6130   -0.5270 c       1  R27        0.5730
     20 O           0.4900   -0.2600   -1.4000 o       1  R27       -0.5134
@<TRIPOS>BOND
     1    13    12    1
     2    20    19    2
     3    12    10   ar
     4    12    14   ar
     5    11    10    1
     6    15    14    1
     7    19    16    1
     8    10     8   ar
     9    14     5   ar
    10    17    16    1
    11     1    16    1
    12     1     2    1
    13    16    18    1
    14     8     9    1
    15     8     6   ar
    16     5     6   ar
    17     5     2    1
    18     6     7    1
    19     4     2    1
    20     2     3    1
@<TRIPOS>SUBSTRUCTURE
      1 R27               1 ****               0 ****  ****
@<TRIPOS>HEADTAIL
N  1
C  1
@<TRIPOS>RESIDUECONNECT
1 N C 0 0 0 0