@<TRIPOS>MOLECULE
R28
 20 20 0 0 0
SMALL
GASTEIGER

@<TRIPOS>ATOM
      1 N           0.8270    0.5890   -0.2670 n       1  R28       -0.3016
      2 C1          0.0760   -0.4170   -0.9750 c3      1  R28        0.1530
      3 H1          0.5320   -0.6060   -1.9500 hc      1  R28        0.0270
      4 H2         -0.9190   -0.0090   -1.1760 hc      1  R28        0.0270
      5 C2         -0.0600   -1.7220   -0.2240 ca      1  R28        0.2107
      6 C3         -0.8260   -2.7360   -0.7870 ca      1  R28       -0.4629
      7 H3         -1.3150   -2.5980   -1.7390 ha      1  R28        0.1809
      8 C4         -0.9600   -3.9350   -0.1150 ca      1  R28        0.5541
      9 F1         -1.7050   -4.9130   -0.6710 f       1  R28       -0.2890
     10 C5         -0.3550   -4.1650    1.1080 ca      1  R28       -0.3676
     11 H4         -0.4820   -5.1140    1.6020 ha      1  R28        0.1716
     12 C6          0.4050   -3.1500    1.6610 ca      1  R28        0.0204
     13 H5          0.8890   -3.3040    2.6140 ha      1  R28        0.0889
     14 C7          0.5520   -1.9400    1.0030 ca      1  R28       -0.2813
     15 H6          1.1550   -1.1630    1.4490 ha      1  R28        0.1236
     16 CA          0.0820    1.5170    0.5530 c3      1  R28        0.0812
     17 H7          0.8150    2.0470    1.1670 h1      1  R28        0.0184
     18 H8         -0.6140    0.9700    1.1990 h1      1  R28        0.0184
     19 C          -0.6970    2.5140   -0.3080 c       1  R28        0.6128
     20 O          -0.8590    2.3430   -1.5020 o       1  R28       -0.5856
@<TRIPOS>BOND
     1     3     2    1
     2     7     6    1
     3    20    19    2
     4     4     2    1
     5     2     1    1
     6     2     5    1
     7     6     5   ar
     8     6     8   ar
     9     9     8    1
    10    19    16    1
    11     1    16    1
    12     5    14   ar
    13     8    10   ar
    14    16    17    1
    15    16    18    1
    16    14    15    1
    17    14    12   ar
    18    10    11    1
    19    10    12   ar
    20    12    13    1
@<TRIPOS>SUBSTRUCTURE
      1 R28               1 ****               0 ****  ****
@<TRIPOS>HEADTAIL
N  1
C  1
@<TRIPOS>RESIDUECONNECT
1 N C 0 0 0 0
