@<TRIPOS>MOLECULE
R29
 20 20 0 0 0
SMALL
GASTEIGER

@<TRIPOS>ATOM
      1 N          -0.8380    0.7560   -0.3170 n       1  R29       -0.3169
      2 C1         -0.0300   -0.3010   -0.8680 c3      1  R29        0.3339
      3 H1          1.0020    0.0550   -0.9290 hc      1  R29        0.0026
      4 H2         -0.3340   -0.5190   -1.8950 hc      1  R29        0.0026
      5 C2         -0.0750   -1.5740   -0.0540 ca      1  R29       -0.1070
      6 C3          0.7200   -2.6460   -0.4460 ca      1  R29        0.1835
      7 F1          1.5010   -2.5200   -1.5350 f       1  R29       -0.2097
      8 C4          0.7140   -3.8360    0.2670 ca      1  R29        0.3577
      9 F2          1.4900   -4.8590   -0.1290 f       1  R29       -0.2361
     10 C5         -0.0860   -3.9790    1.3870 ca      1  R29       -0.3281
     11 H3         -0.0760   -4.9120    1.9250 ha      1  R29        0.1932
     12 C6         -0.8800   -2.9170    1.7820 ca      1  R29       -0.0873
     13 H4         -1.5100   -3.0170    2.6520 ha      1  R29        0.1184
     14 C7         -0.8740   -1.7300    1.0700 ca      1  R29       -0.1763
     15 H5         -1.5040   -0.9130    1.3880 ha      1  R29        0.1285
     16 CA         -0.1890    1.6860    0.5790 c3      1  R29        0.0745
     17 H6          0.3830    1.1380    1.3370 h1      1  R29        0.0176
     18 H7         -0.9840    2.2600    1.0610 h1      1  R29        0.0176
     19 C           0.7430    2.6270   -0.1890 c       1  R29        0.6227
     20 O           1.0610    2.4110   -1.3430 o       1  R29       -0.5914
@<TRIPOS>BOND
     1     4     2    1
     2     7     6    1
     3    20    19    2
     4     3     2    1
     5     2     1    1
     6     2     5    1
     7     6     5   ar
     8     6     8   ar
     9     1    16    1
    10    19    16    1
    11     9     8    1
    12     5    14   ar
    13     8    10   ar
    14    16    18    1
    15    16    17    1
    16    14    15    1
    17    14    12   ar
    18    10    12   ar
    19    10    11    1
    20    12    13    1
@<TRIPOS>SUBSTRUCTURE
      1 R29               1 ****               0 ****  ****
@<TRIPOS>HEADTAIL
N  1
C  1
@<TRIPOS>RESIDUECONNECT
1 N C 0 0 0 0