@<TRIPOS>MOLECULE
R30
 20 20 0 0 0
SMALL
GASTEIGER

@<TRIPOS>ATOM
      1 N          -1.4160    1.2700   -0.0270 n       1  R30       -0.2875
      2 C1         -1.1400    0.4290   -1.1760 c3      1  R30        0.1617
      3 H1         -0.3560    0.9030   -1.7730 h1      1  R30        0.0203
      4 H2         -2.0330    0.3410   -1.7910 h1      1  R30        0.0203
      5 C2         -0.7080   -0.9460   -0.7250 ca      1  R30        0.0673
      6 C3          0.6250   -1.3530   -0.7200 ca      1  R30        0.0610
      7 CL          1.8770   -0.2920   -1.2700 cl      1  R30       -0.1119
      8 C4          0.9960   -2.6120   -0.2730 ca      1  R30       -0.1547
      9 H3          2.0330   -2.9070   -0.2850 ha      1  R30        0.1310
     10 C5          0.0220   -3.4820    0.1880 ca      1  R30        0.1692
     11 CL          0.4800   -5.0480    0.7430 cl      1  R30       -0.1550
     12 C6         -1.3110   -3.1020    0.2080 ca      1  R30       -0.0845
     13 H4         -2.0640   -3.7820    0.5720 ha      1  R30        0.1144
     14 C7         -1.6570   -1.8440   -0.2470 ca      1  R30       -0.2649
     15 H5         -2.6940   -1.5440   -0.2280 ha      1  R30        0.1603
     16 CA         -0.2720    1.5810    0.8010 c3      1  R30       -0.0316
     17 H6          0.2110    0.6580    1.1350 h1      1  R30        0.0498
     18 H7         -0.6580    2.1250    1.6700 h1      1  R30        0.0498
     19 C           0.7230    2.4690    0.0550 c       1  R30        0.6680
     20 O           0.4860    2.9150   -1.0530 o       1  R30       -0.5830
@<TRIPOS>BOND
     1     4     2    1
     2     3     2    1
     3     7     6    1
     4     2     5    1
     5     2     1    1
     6    20    19    2
     7     5     6   ar
     8     5    14   ar
     9     6     8   ar
    10     9     8    1
    11     8    10   ar
    12    14    15    1
    13    14    12   ar
    14     1    16    1
    15    19    16    1
    16    10    12   ar
    17    10    11    1
    18    12    13    1
    19    16    17    1
    20    16    18    1
@<TRIPOS>SUBSTRUCTURE
      1 R30               1 ****               0 ****  ****
@<TRIPOS>HEADTAIL
N  1
C  1
@<TRIPOS>RESIDUECONNECT
1 N C 0 0 0 0
