@<TRIPOS>MOLECULE
R31
 26 27 0 0 0
SMALL
GASTEIGER

@<TRIPOS>ATOM
      1 N           0.8920   -1.1590   -0.4280 n       1  R31       -0.3024
      2 C1          0.0900   -0.0080   -0.7620 c3      1  R31        0.2300
      3 H1         -0.9570   -0.2900   -0.6260 hc      1  R31        0.0110
      4 H2          0.2180    0.2320   -1.8200 hc      1  R31        0.0110
      5 C2          0.3970    1.2150    0.0760 ca      1  R31       -0.0049
      6 C3         -0.3580    2.4030   -0.1230 ca      1  R31       -0.0040
      7 C4         -1.3960    2.5020   -1.0760 ca      1  R31       -0.1704
      8 H3         -1.6450    1.6470   -1.6840 ha      1  R31        0.1144
      9 C5         -2.0960    3.6660   -1.2380 ca      1  R31       -0.1056
     10 H4         -2.8870    3.7220   -1.9720 ha      1  R31        0.0979
     11 C6         -1.7980    4.7930   -0.4600 ca      1  R31       -0.0447
     12 H5         -2.3600    5.7040   -0.6040 ha      1  R31        0.0877
     13 C7         -0.8010    4.7320    0.4720 ca      1  R31       -0.2520
     14 H6         -0.5620    5.5940    1.0790 ha      1  R31        0.1188
     15 C8         -0.0600    3.5480    0.6660 ca      1  R31        0.2713
     16 C9          0.9700    3.4810    1.6270 ca      1  R31       -0.2910
     17 H7          1.1870    4.3580    2.2190 ha      1  R31        0.1527
     18 C10         1.6790    2.3280    1.8000 ca      1  R31       -0.0828
     19 H8          2.4690    2.2720    2.5340 ha      1  R31        0.0976
     20 C11         1.3890    1.1970    1.0220 ca      1  R31       -0.1874
     21 H9          1.9740    0.3010    1.1760 ha      1  R31        0.1317
     22 CA          0.3400   -2.0960    0.5230 c3      1  R31       -0.0170
     23 H10        -0.0120   -1.5600    1.4120 h1      1  R31        0.0515
     24 H11         1.1570   -2.7750    0.7890 h1      1  R31        0.0515
     25 C          -0.8130   -2.8880   -0.0990 c       1  R31        0.6120
     26 O          -1.2520   -2.6070   -1.1990 o       1  R31       -0.5769
@<TRIPOS>BOND
     1    10     9    1
     2     4     2    1
     3     8     7    1
     4     9     7   ar
     5     9    11   ar
     6    26    25    2
     7     7     6   ar
     8     2     3    1
     9     2     1    1
    10     2     5    1
    11    12    11    1
    12    11    13   ar
    13     1    22    1
    14     6     5   ar
    15     6    15   ar
    16    25    22    1
    17     5    20   ar
    18    13    15   ar
    19    13    14    1
    20    22    24    1
    21    22    23    1
    22    15    16   ar
    23    20    21    1
    24    20    18   ar
    25    16    18   ar
    26    16    17    1
    27    18    19    1
@<TRIPOS>SUBSTRUCTURE
      1 R31               1 ****               0 ****  ****
@<TRIPOS>HEADTAIL
N  1
C  1
@<TRIPOS>RESIDUECONNECT
1 N C 0 0 0 0