@<TRIPOS>MOLECULE
R32
 26 27 0 0 0
SMALL
GASTEIGER

@<TRIPOS>ATOM
      1 N          -0.5320    2.4520    0.0500 n       1  R32       -0.3470
      2 C1         -1.2370    1.6430   -0.9360 c3      1  R32        0.3731
      3 H1         -0.7350    1.7200   -1.9080 h1      1  R32       -0.0496
      4 H2         -2.2590    2.0190   -1.0330 h1      1  R32       -0.0496
      5 C2         -1.2770    0.2020   -0.5050 ca      1  R32       -0.0739
      6 C3         -0.5290   -0.7510   -1.1440 ca      1  R32       -0.2908
      7 H3          0.0670   -0.4850   -2.0040 ha      1  R32        0.1895
      8 C4         -0.4970   -2.0840   -0.6830 ca      1  R32        0.1338
      9 C5          0.2940   -3.0700   -1.3080 ca      1  R32       -0.1360
     10 H4          0.8740   -2.7940   -2.1770 ha      1  R32        0.0968
     11 C6          0.3290   -4.3480   -0.8230 ca      1  R32       -0.0811
     12 H5          0.9390   -5.0980   -1.3050 ha      1  R32        0.0876
     13 C7         -0.4300   -4.6990    0.3050 ca      1  R32       -0.1378
     14 H6         -0.3920   -5.7130    0.6740 ha      1  R32        0.1177
     15 C8         -1.2110   -3.7660    0.9300 ca      1  R32       -0.2186
     16 H7         -1.7980   -4.0320    1.7970 ha      1  R32        0.1220
     17 C9         -1.2640   -2.4390    0.4560 ca      1  R32        0.2460
     18 C10        -2.0520   -1.4470    1.0790 ca      1  R32       -0.3374
     19 H8         -2.6480   -1.7200    1.9380 ha      1  R32        0.1531
     20 C11        -2.0570   -0.1640    0.6120 ca      1  R32        0.0053
     21 H9         -2.6550    0.5920    1.1000 ha      1  R32        0.0597
     22 CA          0.4930    1.8010    0.8370 c3      1  R32        0.0435
     23 H10         0.0380    1.0780    1.5180 h1      1  R32        0.0386
     24 H11         0.9780    2.5930    1.4200 h1      1  R32        0.0386
     25 C           1.5280    1.1380   -0.0680 c       1  R32        0.5894
     26 O           1.6900    1.4960   -1.2200 o       1  R32       -0.5729
@<TRIPOS>BOND
     1    10     9    1
     2     7     6    1
     3     3     2    1
     4     9    11   ar
     5     9     8   ar
     6    12    11    1
     7    26    25    2
     8     6     8   ar
     9     6     5   ar
    10     4     2    1
    11     2     5    1
    12     2     1    1
    13    11    13   ar
    14     8    17   ar
    15     5    20   ar
    16    25    22    1
    17     1    22    1
    18    13    14    1
    19    13    15   ar
    20    17    15   ar
    21    17    18   ar
    22    20    18   ar
    23    20    21    1
    24    22    24    1
    25    22    23    1
    26    15    16    1
    27    18    19    1
@<TRIPOS>SUBSTRUCTURE
      1 R32               1 ****               0 ****  ****
@<TRIPOS>HEADTAIL
N  1
C  1
@<TRIPOS>RESIDUECONNECT
1 N C 0 0 0 0