@<TRIPOS>MOLECULE
R33
 38 39 0 0 0
SMALL
GASTEIGER

@<TRIPOS>ATOM
      1 N          -0.3960   -1.7590    1.1210 n       1  R33       -0.3595
      2 C1         -0.4330   -0.3700    0.7190 c3      1  R33        0.2302
      3 H1         -0.0720   -0.3000   -0.3050 h1      1  R33       -0.0027
      4 H2          0.2560    0.2120    1.3350 h1      1  R33       -0.0027
      5 C2         -1.8300    0.2700    0.8050 c3      1  R33        0.0201
      6 H3         -2.1900    0.2000    1.8360 hc      1  R33        0.1771
      7 C3         -1.7180    1.7500    0.4300 c3      1  R33        0.0804
      8 H4         -0.9550    2.2330    1.0440 h1      1  R33        0.1501
      9 H5         -2.6850    2.2520    0.6290 h1      1  R33       -0.0105
     10 N2         -1.3370    1.8840   -0.9620 n3      1  R33       -0.0376
     11 C4         -0.9480    3.2430   -1.2890 c3      1  R33       -0.0641
     12 H6         -1.7480    3.9700   -1.0550 h1      1  R33       -0.0448
     13 H7         -0.7680    3.2850   -2.3700 h1      1  R33       -0.0817
     14 C5          0.3200    3.6280   -0.5740 ca      1  R33       -0.0614
     15 C6          1.3840    2.7360   -0.5260 ca      1  R33       -0.0447
     16 H8          1.2810    1.7700   -0.9960 ha      1  R33        0.1526
     17 C7          2.5540    3.0730    0.1290 ca      1  R33       -0.0218
     18 H9          3.3700    2.3670    0.1650 ha      1  R33       -0.0330
     19 C8          2.6790    4.3130    0.7350 ca      1  R33       -0.3013
     20 H10         3.5930    4.5790    1.2450 ha      1  R33        0.1874
     21 C9          1.6260    5.2100    0.6850 ca      1  R33       -0.0237
     22 H11         1.7170    6.1780    1.1560 ha      1  R33       -0.0237
     23 C10         0.4510    4.8670    0.0380 ca      1  R33        0.0904
     24 H12        -0.3700    5.5690    0.0080 ha      1  R33       -0.1461
     25 C11        -2.3840    1.3700   -1.8210 c3      1  R33        0.0711
     26 H13        -2.0970    1.5420   -2.8620 h1      1  R33       -0.0533
     27 H14        -3.3460    1.8860   -1.6420 h1      1  R33        0.0853
     28 C12        -2.5560   -0.1270   -1.5770 c3      1  R33       -0.1642
     29 H15        -1.6340   -0.6320   -1.8680 hc      1  R33        0.1041
     30 H16        -3.3640   -0.5090   -2.2050 hc      1  R33       -0.0533
     31 C13        -2.8660   -0.3920   -0.1070 c3      1  R33        0.0853
     32 H17        -2.9190   -1.4630    0.0950 hc      1  R33       -0.1461
     33 H18        -3.8470    0.0320    0.1250 hc      1  R33        0.0711
     34 CA         -0.3240   -2.7610    0.0810 c3      1  R33        0.0235
     35 H19        -1.0920   -2.5840   -0.6760 h1      1  R33        0.0560
     36 H20        -0.5020   -3.7250    0.5650 h1      1  R33        0.0560
     37 C           1.0550   -2.7640   -0.5810 c       1  R33        0.5852
     38 O           1.8620   -1.8730   -0.3990 o       1  R33       -0.5497
@<TRIPOS>BOND
     1    26    25    1
     2    13    11    1
     3    30    28    1
     4    29    28    1
     5    25    27    1
     6    25    28    1
     7    25    10    1
     8    28    31    1
     9    11    12    1
    10    11    10    1
    11    11    14    1
    12    16    15    1
    13    10     7    1
    14    35    34    1
    15    37    38    2
    16    37    34    1
    17    14    15   ar
    18    14    23   ar
    19    15    17   ar
    20     3     2    1
    21    31    32    1
    22    31    33    1
    23    31     5    1
    24    24    23    1
    25    23    21   ar
    26    34    36    1
    27    34     1    1
    28    17    18    1
    29    17    19   ar
    30     7     9    1
    31     7     5    1
    32     7     8    1
    33    21    19   ar
    34    21    22    1
    35     2     5    1
    36     2     1    1
    37     2     4    1
    38    19    20    1
    39     5     6    1
@<TRIPOS>SUBSTRUCTURE
      1 R33               1 ****               0 ****  ****
@<TRIPOS>HEADTAIL
N  1
C  1
@<TRIPOS>RESIDUECONNECT
1 N C 0 0 0 0