@<TRIPOS>MOLECULE
R34
 30 31 0 0 0
SMALL
GASTEIGER

@<TRIPOS>ATOM
      1 N          -0.0690   -0.5640   -0.7330 n       1  R34       -0.3360
      2 C1         -0.0510    0.4400    0.3240 c3      1  R34        0.3854
      3 H1         -0.0120   -0.1370    1.2580 h1      1  R34       -0.0601
      4 C2          1.2130    1.2830    0.3370 ca      1  R34        0.0535
      5 C3          1.1970    2.6670    0.2330 ca      1  R34       -0.1171
      6 H2          0.2610    3.1940    0.1150 ha      1  R34        0.0864
      7 C4          2.3800    3.3850    0.2760 ca      1  R34       -0.1074
      8 H3          2.3540    4.4610    0.1930 ha      1  R34        0.0850
      9 C5          3.5900    2.7280    0.4210 ca      1  R34       -0.0845
     10 H4          4.5110    3.2910    0.4510 ha      1  R34        0.0880
     11 C6          3.6110    1.3480    0.5330 ca      1  R34       -0.1074
     12 H5          4.5500    0.8290    0.6540 ha      1  R34        0.0850
     13 C7          2.4300    0.6290    0.4970 ca      1  R34       -0.1171
     14 H6          2.4380   -0.4450    0.5980 ha      1  R34        0.0864
     15 C8         -1.3260    1.2600    0.3560 ca      1  R34        0.0535
     16 C9         -2.2060    1.3170   -0.7150 ca      1  R34       -0.1544
     17 H7         -2.0000    0.7630   -1.6190 ha      1  R34        0.0763
     18 C10        -3.3620    2.0770   -0.6350 ca      1  R34       -0.0611
     19 H8         -4.0360    2.1130   -1.4770 ha      1  R34        0.0886
     20 C11        -3.6510    2.7880    0.5160 ca      1  R34       -0.1453
     21 H9         -4.5510    3.3820    0.5760 ha      1  R34        0.1014
     22 C12        -2.7820    2.7290    1.5940 ca      1  R34       -0.0611
     23 H10        -3.0030    3.2760    2.4990 ha      1  R34        0.0886
     24 C13        -1.6320    1.9670    1.5150 ca      1  R34       -0.1544
     25 H11        -0.9540    1.9200    2.3560 ha      1  R34        0.0763
     26 CA         -0.7060   -1.8160   -0.3790 c3      1  R34        0.0364
     27 H12        -0.9080   -2.3360   -1.3190 h1      1  R34        0.0329
     28 H13        -1.6540   -1.6140    0.1370 h1      1  R34        0.0329
     29 C           0.1770   -2.6930    0.5050 c       1  R34        0.5625
     30 O           1.1840   -2.2730    1.0440 o       1  R34       -0.5132
@<TRIPOS>BOND
     1    17    16    1
     2    19    18    1
     3    27    26    1
     4     1    26    1
     5     1     2    1
     6    16    18   ar
     7    16    15   ar
     8    18    20   ar
     9    26    28    1
    10    26    29    1
    11     6     5    1
    12     8     7    1
    13     5     7   ar
    14     5     4   ar
    15     7     9   ar
    16     2     4    1
    17     2    15    1
    18     2     3    1
    19     4    13   ar
    20    15    24   ar
    21     9    10    1
    22     9    11   ar
    23    13    11   ar
    24    13    14    1
    25    29    30    2
    26    20    21    1
    27    20    22   ar
    28    11    12    1
    29    24    22   ar
    30    24    25    1
    31    22    23    1
@<TRIPOS>SUBSTRUCTURE
      1 R34               1 ****               0 ****  ****
@<TRIPOS>HEADTAIL
N  1
C  1
@<TRIPOS>RESIDUECONNECT
1 N C 0 0 0 0