@<TRIPOS>MOLECULE
R35
 13 12 0 0 0
SMALL
GASTEIGER

@<TRIPOS>ATOM
      1 N          -0.1650    1.3160    0.5230 n       1  R35       -0.3360
      2 C1         -1.5220    1.8310    0.5010 c3      1  R35        0.3227
      3 H1         -1.4390    2.8910    0.2550 h1      1  R35        0.0208
      4 H2         -1.9530    1.7320    1.5050 h1      1  R35       -0.0174
      5 C2         -2.4030    1.1310   -0.5280 c3      1  R35       -0.0174
      6 H3         -1.9120    1.1420   -1.4970 hc      1  R35       -0.0174
      7 H4         -3.3560    1.6460   -0.6070 hc      1  R35       -0.0507
      8 H5         -2.5900    0.0950   -0.2520 hc      1  R35       -0.0507
      9 CA          0.0060   -0.0490    0.9460 c3      1  R35        0.0052
     10 H6         -0.8510   -0.3080    1.5730 h1      1  R35        0.0319
     11 H7          0.9190   -0.1460    1.5420 h1      1  R35        0.0319
     12 C           0.0830   -1.0230   -0.2430 c       1  R35        0.5763
     13 O           0.1250   -0.6210   -1.3880 o       1  R35       -0.4992
@<TRIPOS>BOND
     1     6     5    1
     2    13    12    2
     3     7     5    1
     4     5     8    1
     5     5     2    1
     6    12     9    1
     7     3     2    1
     8     2     1    1
     9     2     4    1
    10     1     9    1
    11     9    11    1
    12     9    10    1
@<TRIPOS>SUBSTRUCTURE
      1 R35               1 ****               0 ****  ****
@<TRIPOS>HEADTAIL
N  1
C  1
@<TRIPOS>RESIDUECONNECT
1 N C 0 0 0 0