@<TRIPOS>MOLECULE
R36
 16 15 0 0 0
SMALL
GASTEIGER

@<TRIPOS>ATOM
      1 N          -0.1020   -0.9680   -0.0200 n       1  R36       -0.2555
      2 C1          0.7190   -1.6120   -1.0280 c3      1  R36        0.2275
      3 H1          1.0590   -0.8560   -1.7430 h1      1  R36       -0.0224
      4 H2          0.0710   -2.3200   -1.5470 h1      1  R36       -0.0224
      5 C2          1.9120   -2.3610   -0.4300 c3      1  R36        0.1731
      6 H3          2.5750   -1.6670    0.0940 hc      1  R36       -0.0662
      7 H4          2.4800   -2.7980   -1.2530 hc      1  R36       -0.0662
      8 C3          1.4640   -3.4590    0.5270 c3      1  R36       -0.0148
      9 H5          0.9320   -3.0330    1.3740 hc      1  R36       -0.0102
     10 H6          2.3210   -4.0150    0.9010 hc      1  R36       -0.0102
     11 H7          0.7930   -4.1470    0.0210 hc      1  R36       -0.0102
     12 CA          0.3910    0.2730    0.5180 c3      1  R36       -0.1251
     13 H8          1.4840    0.2380    0.4950 h1      1  R36        0.0641
     14 H9          0.0660    0.3900    1.5540 h1      1  R36        0.0641
     15 C          -0.0880    1.4720   -0.3190 c       1  R36        0.6267
     16 O          -0.7950    1.3110   -1.2930 o       1  R36       -0.5523
@<TRIPOS>BOND
     1     3     2    1
     2     4     2    1
     3    16    15    2
     4     7     5    1
     5     2     5    1
     6     2     1    1
     7     5     6    1
     8     5     8    1
     9    15    12    1
    10     1    12    1
    11    11     8    1
    12    13    12    1
    13    12    14    1
    14     8    10    1
    15     8     9    1
@<TRIPOS>SUBSTRUCTURE
      1 R36               1 ****               0 ****  ****
@<TRIPOS>HEADTAIL
N  1
C  1
@<TRIPOS>RESIDUECONNECT
1 N C 0 0 0 0