@<TRIPOS>MOLECULE
R37
 19 18 0 0 0
SMALL
GASTEIGER

@<TRIPOS>ATOM
      1 N           0.4270    0.5720   -0.0900 n       1  R37       -0.2528
      2 C1         -0.1370    1.2870   -1.2200 c3      1  R37        0.1534
      3 H1         -0.5360    0.5590   -1.9340 h1      1  R37        0.0070
      4 H2          0.6890    1.8230   -1.6900 h1      1  R37        0.0070
      5 C2         -1.2220    2.2840   -0.8070 c3      1  R37        0.0370
      6 H3         -2.0600    1.7620   -0.3360 hc      1  R37       -0.0421
      7 H4         -1.6010    2.7630   -1.7110 hc      1  R37       -0.0421
      8 C3         -0.6870    3.3480    0.1480 c3      1  R37        0.3626
      9 H5          0.1700    3.8410   -0.3130 hc      1  R37       -0.0859
     10 H6         -0.3320    2.8680    1.0620 hc      1  R37       -0.0859
     11 C4         -1.7510    4.3810    0.4960 c3      1  R37       -0.2401
     12 H7         -2.0990    4.8880   -0.4010 hc      1  R37        0.0355
     13 H8         -1.3510    5.1270    1.1780 hc      1  R37        0.0355
     14 H9         -2.6070    3.9060    0.9720 hc      1  R37        0.0355
     15 CA         -0.3460   -0.5240    0.4310 c3      1  R37       -0.1765
     16 H10        -1.4030   -0.2980    0.2670 h1      1  R37        0.0817
     17 H11        -0.1740   -0.6310    1.5050 h1      1  R37        0.0817
     18 C           0.0020   -1.8400   -0.2860 c       1  R37        0.6418
     19 O           0.8410   -1.8710   -1.1630 o       1  R37       -0.5533
@<TRIPOS>BOND
     1     3     2    1
     2     7     5    1
     3     4     2    1
     4     2     5    1
     5     2     1    1
     6    19    18    2
     7     5     6    1
     8     5     8    1
     9    12    11    1
    10     9     8    1
    11    18    15    1
    12     1    15    1
    13     8    11    1
    14     8    10    1
    15    16    15    1
    16    15    17    1
    17    11    14    1
    18    11    13    1
@<TRIPOS>SUBSTRUCTURE
      1 R37               1 ****               0 ****  ****
@<TRIPOS>HEADTAIL
N  1
C  1
@<TRIPOS>RESIDUECONNECT
1 N C 0 0 0 0