@<TRIPOS>MOLECULE
R38
 22 21 0 0 0
SMALL
GASTEIGER

@<TRIPOS>ATOM
      1 N           0.4620    0.3140   -0.0680 n       1  R38       -0.2302
      2 C1         -0.0430    1.0380   -1.2200 c3      1  R38        0.2491
      3 H1         -0.3750    0.3150   -1.9720 h1      1  R38       -0.0265
      4 H2          0.7990    1.5970   -1.6290 h1      1  R38       -0.0265
      5 C2         -1.1900    1.9920   -0.8760 c3      1  R38       -0.0469
      6 H3         -2.0670    1.4170   -0.5630 hc      1  R38       -0.0377
      7 H4         -1.4630    2.5270   -1.7870 hc      1  R38       -0.0377
      8 C3         -0.8510    3.0060    0.2230 c3      1  R38        0.5732
      9 H5         -0.5140    2.4570    1.1090 hc      1  R38       -0.1770
     10 C4          0.2650    3.9530   -0.2090 c3      1  R38       -0.2473
     11 H6          0.0020    4.4520   -1.1390 hc      1  R38        0.0365
     12 H7          1.1970    3.4130   -0.3480 hc      1  R38        0.0365
     13 H8          0.4270    4.7120    0.5540 hc      1  R38        0.0365
     14 C5         -2.1050    3.7980    0.5920 c3      1  R38       -0.2473
     15 H9         -2.4630    4.3590   -0.2690 hc      1  R38        0.0241
     16 H10        -1.8900    4.5010    1.3930 hc      1  R38        0.0241
     17 H11        -2.9030    3.1360    0.9250 hc      1  R38        0.0241
     18 CA         -0.3490   -0.7730    0.4150 c3      1  R38       -0.1716
     19 H12        -1.3940   -0.5300    0.2070 h1      1  R38        0.0850
     20 H13        -0.2250   -0.8860    1.4950 h1      1  R38        0.0850
     21 C           0.0110   -2.0900   -0.2930 c       1  R38        0.6289
     22 O           0.8820   -2.1280   -1.1370 o       1  R38       -0.5543
@<TRIPOS>BOND
     1     3     2    1
     2     7     5    1
     3     4     2    1
     4     2     5    1
     5     2     1    1
     6    11    10    1
     7    22    21    2
     8     5     6    1
     9     5     8    1
    10    12    10    1
    11    21    18    1
    12    15    14    1
    13    10     8    1
    14    10    13    1
    15     1    18    1
    16    19    18    1
    17     8    14    1
    18     8     9    1
    19    18    20    1
    20    14    17    1
    21    14    16    1
@<TRIPOS>SUBSTRUCTURE
      1 R38               1 ****               0 ****  ****
@<TRIPOS>HEADTAIL
N  1
C  1
@<TRIPOS>RESIDUECONNECT
1 N C 0 0 0 0