@<TRIPOS>MOLECULE
R39
 22 21 0 0 0
SMALL
GASTEIGER

@<TRIPOS>ATOM
      1 N          -0.4950   -0.4690   -0.1120 n       1  R39       -0.2868
      2 C1          0.2270   -1.3540    0.7830 c3      1  R39        0.0891
      3 H1         -0.5080   -1.7430    1.4930 h1      1  R39       -0.0109
      4 H2          0.9650   -0.7690    1.3390 h1      1  R39       -0.0109
      5 C2          0.9120   -2.5540    0.0950 c3      1  R39        0.5558
      6 C3          2.0610   -2.1070   -0.8140 c3      1  R39       -0.1786
      7 H3          2.7740   -1.4900   -0.2680 hc      1  R39        0.0009
      8 H4          1.6880   -1.5500   -1.6700 hc      1  R39        0.0009
      9 H5          2.5930   -2.9780   -1.1920 hc      1  R39        0.0009
     10 C4          1.4730   -3.4520    1.2010 c3      1  R39       -0.1786
     11 H6          2.1910   -2.9080    1.8120 hc      1  R39        0.0118
     12 H7          1.9740   -4.3160    0.7710 hc      1  R39        0.0118
     13 H8          0.6720   -3.8060    1.8450 hc      1  R39        0.0118
     14 C5         -0.1100   -3.3360   -0.7290 c3      1  R39       -0.1786
     15 H9         -0.4680   -2.7400   -1.5650 hc      1  R39        0.0123
     16 H10        -0.9670   -3.6010   -0.1170 hc      1  R39        0.0123
     17 H11         0.3370   -4.2460   -1.1230 hc      1  R39        0.0123
     18 CA          0.2020    0.6930   -0.6030 c3      1  R39       -0.0147
     19 H12        -0.1590    0.9560   -1.6000 h1      1  R39        0.0451
     20 H13         1.2650    0.4520   -0.6650 h1      1  R39        0.0451
     21 C           0.0250    1.8890    0.3490 c       1  R39        0.5835
     22 O          -0.6170    1.7840    1.3740 o       1  R39       -0.5345
@<TRIPOS>BOND
     1     8     6    1
     2    19    18    1
     3    15    14    1
     4     9     6    1
     5    17    14    1
     6     6     7    1
     7     6     5    1
     8    14    16    1
     9    14     5    1
    10    20    18    1
    11    18     1    1
    12    18    21    1
    13     1     2    1
    14     5     2    1
    15     5    10    1
    16    21    22    2
    17    12    10    1
    18     2     4    1
    19     2     3    1
    20    10    11    1
    21    10    13    1
@<TRIPOS>SUBSTRUCTURE
      1 R39               1 ****               0 ****  ****
@<TRIPOS>HEADTAIL
N  1
C  1
@<TRIPOS>RESIDUECONNECT
1 N C 0 0 0 0