@<TRIPOS>MOLECULE
R40
 19 18 0 0 0
SMALL
GASTEIGER

@<TRIPOS>ATOM
      1 N           0.6650   -0.8570    0.6430 n       1  R40       -0.3080
      2 C1         -0.4160   -1.7890    0.9010 c3      1  R40        0.0875
      3 H1         -0.7260   -1.6820    1.9490 h1      1  R40       -0.0104
      4 H2          0.0000   -2.7890    0.7590 h1      1  R40       -0.0104
      5 C2         -1.6310   -1.6140   -0.0200 c3      1  R40        0.5690
      6 H3         -1.9910   -0.5800    0.0560 hc      1  R40       -0.1635
      7 C3         -1.2480   -1.8900   -1.4700 c3      1  R40       -0.2650
      8 H4         -0.8110   -2.8800   -1.5630 hc      1  R40        0.0438
      9 H5         -0.5220   -1.1580   -1.8120 hc      1  R40        0.0438
     10 H6         -2.1250   -1.8300   -2.1110 hc      1  R40        0.0438
     11 C4         -2.7440   -2.5530    0.4380 c3      1  R40       -0.2650
     12 H7         -2.4130   -3.5870    0.3720 hc      1  R40        0.0300
     13 H8         -3.6230   -2.4340   -0.1910 hc      1  R40        0.0300
     14 H9         -3.0300   -2.3490    1.4680 hc      1  R40        0.0300
     15 CA          0.4390    0.5190    1.0010 c3      1  R40       -0.0138
     16 H10         1.3260    0.9340    1.4920 h1      1  R40        0.0398
     17 H11        -0.3930    0.5370    1.7100 h1      1  R40        0.0398
     18 C           0.0940    1.4040   -0.2080 c       1  R40        0.5763
     19 O           0.1980    0.9940   -1.3460 o       1  R40       -0.4977
@<TRIPOS>BOND
     1    10     7    1
     2     9     7    1
     3     8     7    1
     4     7     5    1
     5    19    18    2
     6    18    15    1
     7    13    11    1
     8     5     6    1
     9     5    11    1
    10     5     2    1
    11    12    11    1
    12    11    14    1
    13     1     2    1
    14     1    15    1
    15     4     2    1
    16     2     3    1
    17    15    16    1
    18    15    17    1
@<TRIPOS>SUBSTRUCTURE
      1 R40               1 ****               0 ****  ****
@<TRIPOS>HEADTAIL
N  1
C  1
@<TRIPOS>RESIDUECONNECT
1 N C 0 0 0 0