@<TRIPOS>MOLECULE
R41
 25 24 0 0 0
SMALL
GASTEIGER

@<TRIPOS>ATOM
      1 N          -0.6500   -0.0430   -0.0130 n       1  R41       -0.2028
      2 C1          0.0830   -1.0200   -0.7950 c3      1  R41        0.0768
      3 H1          0.7690   -0.4900   -1.4640 h1      1  R41        0.0049
      4 H2         -0.6520   -1.5460   -1.4040 h1      1  R41        0.0049
      5 C2          0.8680   -2.0310    0.0580 c3      1  R41        0.1467
      6 H3          1.6500   -1.4930    0.6110 hc      1  R41       -0.0787
      7 C3         -0.0270   -2.7100    1.1050 c3      1  R41        0.2321
      8 H4         -0.4770   -1.9280    1.7220 hc      1  R41       -0.1000
      9 H5          0.6040   -3.3150    1.7610 hc      1  R41       -0.1000
     10 C4         -1.1440   -3.5780    0.5360 c3      1  R41       -0.0962
     11 H6         -1.8240   -2.9840   -0.0680 hc      1  R41        0.0130
     12 H7         -1.7140   -4.0160    1.3530 hc      1  R41        0.0130
     13 H8         -0.7460   -4.3890   -0.0680 hc      1  R41        0.0130
     14 C5          1.5720   -3.0130   -0.8860 c3      1  R41        0.2321
     15 H9          2.1650   -2.4340   -1.5970 hc      1  R41       -0.0767
     16 H10         0.8260   -3.5630   -1.4600 hc      1  R41       -0.0767
     17 C6          2.4900   -3.9950   -0.1670 c3      1  R41       -0.1231
     18 H11         3.2100   -3.4650    0.4530 hc      1  R41        0.0125
     19 H12         3.0390   -4.5920   -0.8920 hc      1  R41        0.0125
     20 H13         1.9230   -4.6720    0.4660 hc      1  R41        0.0125
     21 CA          0.1220    1.0100    0.5930 c3      1  R41       -0.0706
     22 H14         1.1190    0.6160    0.8100 h1      1  R41        0.0442
     23 H15        -0.3290    1.3230    1.5370 h1      1  R41        0.0442
     24 C           0.2650    2.2170   -0.3450 c       1  R41        0.6376
     25 O          -0.1680    2.1990   -1.4790 o       1  R41       -0.5752
@<TRIPOS>BOND
     1    15    14    1
     2    25    24    2
     3     3     2    1
     4    16    14    1
     5     4     2    1
     6    19    17    1
     7    14    17    1
     8    14     5    1
     9     2     1    1
    10     2     5    1
    11    24    21    1
    12    17    18    1
    13    17    20    1
    14    11    10    1
    15    13    10    1
    16     1    21    1
    17     5     6    1
    18     5     7    1
    19    10     7    1
    20    10    12    1
    21    21    22    1
    22    21    23    1
    23     7     8    1
    24     7     9    1
@<TRIPOS>SUBSTRUCTURE
      1 R41               1 ****               0 ****  ****
@<TRIPOS>HEADTAIL
N  1
C  1
@<TRIPOS>RESIDUECONNECT
1 N C 0 0 0 0