@<TRIPOS>MOLECULE
R42
 17 17 0 0 0
SMALL
GASTEIGER

@<TRIPOS>ATOM
      1 N          -0.3610   -0.6650    0.0480 n       1  R42       -0.2002
      2 C1          0.4910   -1.4680   -0.8160 c3      1  R42        0.1804
      3 H1          1.0430   -0.8020   -1.4860 h1      1  R42        0.0156
      4 H2         -0.1770   -2.0940   -1.4110 h1      1  R42        0.0156
      5 C2          1.4310   -2.3490   -0.0240 cx      1  R42       -0.0436
      6 H3          2.2350   -1.8210    0.4790 hc      1  R42        0.0348
      7 C3          1.7420   -3.7280   -0.5250 cx      1  R42       -0.1532
      8 H4          2.7410   -4.1120   -0.3810 hc      1  R42        0.0628
      9 H5          1.2830   -4.0440   -1.4480 hc      1  R42        0.0628
     10 C4          0.8640   -3.5490    0.6740 cx      1  R42       -0.1532
     11 H6          1.2530   -3.8170    1.6440 hc      1  R42        0.0706
     12 H7         -0.1930   -3.7310    0.5580 hc      1  R42        0.0706
     13 CA          0.2190    0.5330    0.5930 c3      1  R42       -0.3033
     14 H8          1.2930    0.3670    0.7150 h1      1  R42        0.1080
     15 H9         -0.2010    0.7460    1.5790 h1      1  R42        0.1080
     16 C           0.0010    1.7400   -0.3300 c       1  R42        0.7014
     17 O          -0.6400    1.6500   -1.3570 o       1  R42       -0.5771
@<TRIPOS>BOND
     1     3     2    1
     2     9     7    1
     3     4     2    1
     4    17    16    2
     5     2     5    1
     6     2     1    1
     7     7     8    1
     8     7     5    1
     9     7    10    1
    10    16    13    1
    11     5     6    1
    12     5    10    1
    13     1    13    1
    14    12    10    1
    15    13    14    1
    16    13    15    1
    17    10    11    1
@<TRIPOS>SUBSTRUCTURE
      1 R42               1 ****               0 ****  ****
@<TRIPOS>HEADTAIL
N  1
C  1
@<TRIPOS>RESIDUECONNECT
1 N C 0 0 0 0