@<TRIPOS>MOLECULE
R43
 16 15 0 0 0
SMALL
GASTEIGER

@<TRIPOS>ATOM
      1 N           0.0390    1.1730   -0.2400 n       1  R43       -0.4846
      2 C1         -1.1440    1.8240    0.3130 c3      1  R43        0.6341
      3 H1         -0.7590    2.7260    0.8000 h1      1  R43       -0.2707
      4 C2         -2.1080    2.2460   -0.7970 c3      1  R43        0.0392
      5 H2         -2.5560    1.3850   -1.2910 hc      1  R43        0.0392
      6 H3         -1.5840    2.8430   -1.5390 hc      1  R43        0.0392
      7 H4         -2.9090    2.8460   -0.3740 hc      1  R43       -0.2707
      8 C3         -1.8330    0.9540    1.3620 c3      1  R43        0.0408
      9 H5         -2.3480    0.1090    0.9090 hc      1  R43        0.0408
     10 H6         -2.5650    1.5480    1.9030 hc      1  R43        0.0408
     11 H7         -1.0990    0.5770    2.0690 hc      1  R43       -0.0434
     12 CA         -0.1050   -0.1550   -0.7730 c3      1  R43        0.1481
     13 H8          0.5220   -0.2750   -1.6620 h1      1  R43        0.0007
     14 H9         -1.1440   -0.2920   -1.0780 h1      1  R43        0.0007
     15 C           0.2700   -1.2430    0.2430 c       1  R43        0.5594
     16 O           0.7880   -0.9790    1.3090 o       1  R43       -0.5136
@<TRIPOS>BOND
     1    13    12    1
     2     6     4    1
     3     5     4    1
     4    14    12    1
     5     4     7    1
     6     4     2    1
     7    12     1    1
     8    12    15    1
     9     1     2    1
    10    15    16    2
    11     2     3    1
    12     2     8    1
    13     9     8    1
    14     8    10    1
    15     8    11    1
@<TRIPOS>SUBSTRUCTURE
      1 R43               1 ****               0 ****  ****
@<TRIPOS>HEADTAIL
N  1
C  1
@<TRIPOS>RESIDUECONNECT
1 N C 0 0 0 0