@<TRIPOS>MOLECULE
R44
 17 16 0 0 0
SMALL
GASTEIGER

@<TRIPOS>ATOM
      1 N          -0.1790   -1.4160    0.5930 n       1  R44       -0.3437
      2 C1          1.2220   -1.7300    0.7390 c3      1  R44        0.0284
      3 H1          1.3880   -2.7820    0.5170 h1      1  R44        0.0111
      4 H2          1.5100   -1.5420    1.7800 h1      1  R44        0.0111
      5 C2          2.1260   -0.8740   -0.1550 c3      1  R44        0.4836
      6 H3          1.6650   -0.7660   -1.1450 h1      1  R44       -0.0812
      7 H4          3.1090   -1.3590   -0.2680 h1      1  R44       -0.0812
      8 O1          2.2850    0.3950    0.4450 os      1  R44       -0.4387
      9 C3          2.8640    1.3390   -0.4180 c3      1  R44        0.0976
     10 H5          2.9310    2.2710    0.1390 hc      1  R44        0.0218
     11 H6          2.2420    1.4840   -1.3090 hc      1  R44        0.0218
     12 H7          3.8680    1.0270   -0.7310 hc      1  R44        0.0218
     13 CA         -0.5900   -0.0870    0.9890 c3      1  R44        0.1771
     14 H8          0.0950    0.2800    1.7530 h1      1  R44       -0.0002
     15 H9         -1.6070   -0.1490    1.3860 h1      1  R44       -0.0002
     16 C          -0.5900    0.8590   -0.2140 c       1  R44        0.5814
     17 O          -0.2500    0.4990   -1.3240 o       1  R44       -0.5105
@<TRIPOS>BOND
     1    17    16    2
     2    11     9    1
     3     6     5    1
     4    12     9    1
     5     9    10    1
     6     9     8    1
     7     7     5    1
     8    16    13    1
     9     5     8    1
    10     5     2    1
    11     3     2    1
    12     1     2    1
    13     1    13    1
    14     2     4    1
    15    13    15    1
    16    13    14    1
@<TRIPOS>SUBSTRUCTURE
      1 R44               1 ****               0 ****  ****
@<TRIPOS>HEADTAIL
N  1
C  1
@<TRIPOS>RESIDUECONNECT
1 N C 0 0 0 0