@<TRIPOS>MOLECULE
R45
 14 13 0 0 0
SMALL
GASTEIGER

@<TRIPOS>ATOM
      1 N           0.4020    0.8770   -0.7210 n       1  R45       -0.3017
      2 C1         -0.7800    1.5990   -1.1740 c3      1  R45        0.0102
      3 H1         -1.2730    0.9960   -1.9370 h1      1  R45        0.0259
      4 H2         -0.4520    2.5400   -1.6270 h1      1  R45        0.0259
      5 C2         -1.7650    1.9410   -0.0360 c3      1  R45        0.5816
      6 H3         -1.6280    1.2170    0.7800 h1      1  R45       -0.0866
      7 H4         -2.7940    1.8680   -0.4010 h1      1  R45       -0.0866
      8 O1         -1.6130    3.2540    0.4220 oh      1  R45       -0.7663
      9 H5         -0.6670    3.3760    0.6200 ho      1  R45        0.4438
     10 CA          0.4600   -0.5420   -0.9540 c3      1  R45        0.0117
     11 H6          1.4930   -0.8500   -1.1400 h1      1  R45        0.0359
     12 H7         -0.1280   -0.7720   -1.8460 h1      1  R45        0.0359
     13 C          -0.0920   -1.3400    0.2380 c       1  R45        0.5799
     14 O          -0.3800   -0.7960    1.2850 o       1  R45       -0.5096
@<TRIPOS>BOND
     1     3     2    1
     2    12    10    1
     3     4     2    1
     4     2     1    1
     5     2     5    1
     6    11    10    1
     7    10     1    1
     8    10    13    1
     9     7     5    1
    10     5     8    1
    11     5     6    1
    12    13    14    2
    13     8     9    1
@<TRIPOS>SUBSTRUCTURE
      1 R45               1 ****               0 ****  ****
@<TRIPOS>HEADTAIL
N  1
C  1
@<TRIPOS>RESIDUECONNECT
1 N C 0 0 0 0