@<TRIPOS>MOLECULE
R46
 20 19 0 0 0
SMALL
GASTEIGER

@<TRIPOS>ATOM
      1 N           0.9140   -0.5720    0.0030 n       1  R46       -0.3261
      2 C1          0.5280   -1.2580   -1.2070 c3      1  R46        0.3524
      3 H1          1.3750   -1.3270   -1.8930 h1      1  R46       -0.0374
      4 H2         -0.2410   -0.6570   -1.6930 h1      1  R46       -0.0374
      5 C2         -0.0380   -2.6660   -0.9560 c3      1  R46       -0.2244
      6 H3          0.7510   -3.3500   -0.6410 hc      1  R46        0.0281
      7 H4         -0.4550   -3.0310   -1.8950 hc      1  R46        0.0281
      8 C3         -1.1240   -2.6940    0.1140 c3      1  R46        0.5034
      9 H5         -0.7080   -2.3760    1.0830 h1      1  R46       -0.0854
     10 H6         -1.4980   -3.7230    0.2310 h1      1  R46       -0.0854
     11 O1         -2.1860   -1.8410   -0.2580 os      1  R46       -0.4281
     12 C4         -3.2710   -1.8990    0.6290 c3      1  R46        0.2031
     13 H7         -4.0190   -1.2020    0.2570 h1      1  R46       -0.0078
     14 H8         -2.9730   -1.6100    1.6460 h1      1  R46       -0.0078
     15 H9         -3.7000   -2.9080    0.6670 h1      1  R46       -0.0078
     16 CA          0.0080    0.4460    0.4880 c3      1  R46       -0.0105
     17 H10         0.2920    0.6580    1.5230 h1      1  R46        0.0617
     18 H11        -1.0190    0.0790    0.4290 h1      1  R46        0.0617
     19 C           0.1570    1.7130   -0.3610 c       1  R46        0.5940
     20 O           0.8800    1.7330   -1.3390 o       1  R46       -0.5744
@<TRIPOS>BOND
     1     7     5    1
     2     3     2    1
     3     4     2    1
     4    20    19    2
     5     2     5    1
     6     2     1    1
     7     5     6    1
     8     5     8    1
     9    19    16    1
    10    11     8    1
    11    11    12    1
    12     1    16    1
    13     8    10    1
    14     8     9    1
    15    13    12    1
    16    18    16    1
    17    16    17    1
    18    12    15    1
    19    12    14    1
@<TRIPOS>SUBSTRUCTURE
      1 R46               1 ****               0 ****  ****
@<TRIPOS>HEADTAIL
N  1
C  1
@<TRIPOS>RESIDUECONNECT
1 N C 0 0 0 0