@<TRIPOS>MOLECULE
R47
 17 16 0 0 0
SMALL
GASTEIGER

@<TRIPOS>ATOM
      1 N           0.9170    0.8890   -0.6480 n       1  R47       -0.3974
      2 C1         -0.0720    1.5800   -1.4520 c3      1  R47        0.2070
      3 H1          0.0840    1.3150   -2.5050 h1      1  R47       -0.0140
      4 H2          0.1250    2.6470   -1.3240 h1      1  R47       -0.0140
      5 C2         -1.5170    1.2780   -1.0570 c3      1  R47       -0.0338
      6 H3         -1.7270    0.2100   -1.1480 h1      1  R47       -0.0181
      7 H4         -2.1730    1.8070   -1.7550 h1      1  R47       -0.0181
      8 C3         -1.8380    1.7260    0.3730 c3      1  R47        0.4968
      9 H5         -1.4880    2.7550    0.5240 hc      1  R47       -0.0427
     10 H6         -1.3330    1.0790    1.0920 hc      1  R47       -0.0427
     11 O1         -3.2140    1.6150    0.6620 oh      1  R47       -0.7013
     12 H7         -3.7000    2.2240    0.0940 ho      1  R47        0.3537
     13 CA          0.9990   -0.5400   -0.8100 c3      1  R47        0.1563
     14 H8          2.0450   -0.8660   -0.7810 h1      1  R47       -0.0029
     15 H9          0.5920   -0.7850   -1.7930 h1      1  R47       -0.0029
     16 C           0.2330   -1.3050    0.2800 c       1  R47        0.5549
     17 O          -0.0640   -0.7810    1.3350 o       1  R47       -0.4808
@<TRIPOS>BOND
     1     3     2    1
     2    15    13    1
     3     7     5    1
     4     2     4    1
     5     2     5    1
     6     2     1    1
     7     6     5    1
     8     5     8    1
     9    13    14    1
    10    13     1    1
    11    13    16    1
    12    12    11    1
    13    16    17    2
    14     8     9    1
    15     8    11    1
    16     8    10    1
@<TRIPOS>SUBSTRUCTURE
      1 R47               1 ****               0 ****  ****
@<TRIPOS>HEADTAIL
N  1
C  1
@<TRIPOS>RESIDUECONNECT
1 N C 0 0 0 0