@<TRIPOS>MOLECULE
R48
 19 18 0 0 0
SMALL
GASTEIGER

@<TRIPOS>ATOM
      1 N           0.3400   -0.8820   -0.3700 n       1  R48       -0.2670
      2 C1         -0.8410   -1.6500   -0.7810 c3      1  R48        0.4202
      3 H1         -1.5160   -0.9420   -1.2770 h1      1  R48       -0.0675
      4 C2         -0.4350   -2.7300   -1.7860 c3      1  R48       -0.2521
      5 H2          0.2030   -3.4600   -1.2980 hc      1  R48        0.0352
      6 H3          0.1090   -2.2890   -2.6200 hc      1  R48        0.0352
      7 H4         -1.3180   -3.2320   -2.1720 hc      1  R48        0.0352
      8 C3         -1.5970   -2.2530    0.4080 c3      1  R48        0.0623
      9 H5         -0.9080   -2.8600    0.9920 h1      1  R48       -0.0099
     10 H6         -2.3740   -2.9090    0.0090 h1      1  R48       -0.0099
     11 C4         -2.2330   -1.1890    1.2930 c3      1  R48       -0.1229
     12 H7         -1.4770   -0.5090    1.6780 hc      1  R48        0.0094
     13 H8         -2.7370   -1.6540    2.1360 hc      1  R48        0.0094
     14 H9         -2.9670   -0.6090    0.7330 hc      1  R48        0.0094
     15 CA          0.4420    0.4790   -0.8360 c3      1  R48       -0.0702
     16 H10        -0.2240    0.6010   -1.6940 h1      1  R48        0.0496
     17 H11         1.4620    0.6880   -1.1750 h1      1  R48        0.0496
     18 C           0.0730    1.5160    0.2340 c       1  R48        0.5750
     19 O          -0.0670    1.2190    1.4040 o       1  R48       -0.4910
@<TRIPOS>BOND
     1     6     4    1
     2     7     4    1
     3     4     5    1
     4     4     2    1
     5    16    15    1
     6     3     2    1
     7    17    15    1
     8    15     1    1
     9    15    18    1
    10     2     1    1
    11     2     8    1
    12    10     8    1
    13    18    19    2
    14     8     9    1
    15     8    11    1
    16    14    11    1
    17    11    12    1
    18    11    13    1
@<TRIPOS>SUBSTRUCTURE
      1 R48               1 ****               0 ****  ****
@<TRIPOS>HEADTAIL
N  1
C  1
@<TRIPOS>RESIDUECONNECT
1 N C 0 0 0 0