@<TRIPOS>MOLECULE
R49
 23 23 0 0 0
SMALL
GASTEIGER

@<TRIPOS>ATOM
      1 N          -0.8070   -2.0100    0.8210 n       1  R49       -0.3189
      2 C1         -1.1890   -0.6180    0.7480 c3      1  R49        0.2839
      3 H1         -0.5800   -0.0730    1.4730 h1      1  R49       -0.0301
      4 H2         -2.2380   -0.4940    1.0270 h1      1  R49       -0.0301
      5 C2         -0.9430    0.0010   -0.6420 c3      1  R49       -0.0751
      6 H3         -1.6900   -0.3530   -1.3540 hc      1  R49        0.0218
      7 H4          0.0400   -0.3120   -0.9920 hc      1  R49        0.0218
      8 C3         -0.9790    1.4990   -0.5470 ca      1  R49        0.1798
      9 C4         -2.1020    2.2230   -0.9240 ca      1  R49       -0.2425
     10 H5         -2.9650    1.7080   -1.3200 ha      1  R49        0.1238
     11 C5         -2.1200    3.6020   -0.8000 ca      1  R49       -0.0865
     12 H6         -2.9960    4.1580   -1.0980 ha      1  R49        0.1160
     13 C6         -1.0220    4.2750   -0.2970 ca      1  R49       -0.2011
     14 H7         -1.0270    5.3490   -0.1990 ha      1  R49        0.1308
     15 C7          0.0960    3.5470    0.0820 ca      1  R49        0.2716
     16 Cl          1.4760    4.3770    0.7120 cl      1  R49       -0.1916
     17 C8          0.1270    2.1690   -0.0370 ca      1  R49       -0.3344
     18 H8          1.0040    1.6140    0.2640 ha      1  R49        0.2391
     19 CA          0.5270   -2.2700    1.3360 c3      1  R49        0.0454
     20 H9          0.6570   -3.3490    1.4200 h1      1  R49        0.0266
     21 H10         0.6120   -1.8210    2.3320 h1      1  R49        0.0266
     22 C           1.6170   -1.6180    0.4800 c       1  R49        0.6386
     23 O           2.0840   -0.5410    0.8160 o       1  R49       -0.6155
@<TRIPOS>BOND
     1     6     5    1
     2    10     9    1
     3    12    11    1
     4     7     5    1
     5     9    11   ar
     6     9     8   ar
     7    11    13   ar
     8     5     8    1
     9     5     2    1
    10     8    17   ar
    11    13    14    1
    12    13    15   ar
    13    17    15   ar
    14    17    18    1
    15    15    16    1
    16    22    23    2
    17    22    19    1
    18     2     1    1
    19     2     4    1
    20     2     3    1
    21     1    19    1
    22    19    20    1
    23    19    21    1
@<TRIPOS>SUBSTRUCTURE
      1 R49               1 ****               0 ****  ****
@<TRIPOS>HEADTAIL
N  1
C  1
@<TRIPOS>RESIDUECONNECT
1 N C 0 0 0 0