@<TRIPOS>MOLECULE
R50
 23 23 0 0 0
SMALL
GASTEIGER

@<TRIPOS>ATOM
      1 N          -1.2830    1.9470   -0.0880 n       1  R50       -0.3596
      2 C1         -1.0960    0.5710    0.3000 c3      1  R50        0.2676
      3 H1         -1.7880    0.3020    1.0980 h1      1  R50       -0.0175
      4 H2         -0.0850    0.4700    0.6980 h1      1  R50       -0.0175
      5 C2         -1.2770   -0.3890   -0.8950 c3      1  R50        0.1015
      6 H3         -0.6980   -0.0120   -1.7410 hc      1  R50       -0.0224
      7 H4         -2.3260   -0.4220   -1.1900 hc      1  R50       -0.0224
      8 C3         -0.8010   -1.7620   -0.5340 ca      1  R50        0.0214
      9 C4         -1.6910   -2.7470   -0.1250 ca      1  R50       -0.2801
     10 H5         -2.7460   -2.5200   -0.0970 ha      1  R50        0.1622
     11 C5         -1.2640   -4.0100    0.2410 ca      1  R50       -0.0792
     12 H6         -1.9720   -4.7610    0.5520 ha      1  R50        0.1155
     13 C6          0.0900   -4.3030    0.2020 ca      1  R50        0.1916
     14 Cl1         0.6450   -5.8740    0.6490 cl      1  R50       -0.1614
     15 C7          1.0090   -3.3450   -0.1950 ca      1  R50       -0.2255
     16 H7          2.0620   -3.5750   -0.2230 ha      1  R50        0.1610
     17 C8          0.5540   -2.0880   -0.5530 ca      1  R50        0.1364
     18 Cl2         1.7230   -0.9130   -1.0410 cl      1  R50       -0.1487
     19 CA         -0.1110    2.6410   -0.5740 c3      1  R50       -0.0443
     20 H8         -0.4670    3.5810   -1.0050 h1      1  R50        0.0761
     21 H9          0.3900    2.0390   -1.3390 h1      1  R50        0.0761
     22 C           0.8590    2.9300    0.5770 c       1  R50        0.6445
     23 O           0.6350    2.5340    1.7050 o       1  R50       -0.5753
@<TRIPOS>BOND
     1     6     5    1
     2    21    19    1
     3     7     5    1
     4    18    17    1
     5    20    19    1
     6     5     8    1
     7     5     2    1
     8    19     1    1
     9    19    22    1
    10    17     8   ar
    11    17    15   ar
    12     8     9   ar
    13    16    15    1
    14    15    13   ar
    15     9    10    1
    16     9    11   ar
    17     1     2    1
    18    13    11   ar
    19    13    14    1
    20    11    12    1
    21     2     4    1
    22     2     3    1
    23    22    23    2
@<TRIPOS>SUBSTRUCTURE
      1 R50               1 ****               0 ****  ****
@<TRIPOS>HEADTAIL
N  1
C  1
@<TRIPOS>RESIDUECONNECT
1 N C 0 0 0 0