@<TRIPOS>MOLECULE
R51
 23 23 0 0 0
SMALL
GASTEIGER

@<TRIPOS>ATOM
      1 N          -0.9980   -0.9760   -0.7910 n       1  R51       -0.3235
      2 C1         -0.7620    0.4450   -0.8200 c3      1  R51        0.1281
      3 H1         -1.7080    0.9670   -0.9740 h1      1  R51       -0.0064
      4 H2         -0.1170    0.6640   -1.6770 h1      1  R51       -0.0064
      5 C2         -0.0910    0.9740    0.4620 c3      1  R51        0.3880
      6 H3          0.8830    0.4970    0.5740 h1      1  R51       -0.0451
      7 H4         -0.6940    0.6970    1.3260 h1      1  R51       -0.0451
      8 C3          0.0700    2.4610    0.3860 ca      1  R51       -0.3080
      9 C4         -0.7750    3.3340    1.0590 ca      1  R51       -0.0665
     10 H5         -1.5590    2.9270    1.6800 ha      1  R51        0.1089
     11 C5         -0.6210    4.7050    0.9530 ca      1  R51       -0.1897
     12 H6         -1.2880    5.3630    1.4890 ha      1  R51        0.1179
     13 C6          0.3850    5.2360    0.1650 ca      1  R51       -0.0176
     14 H7          0.5080    6.3050    0.0820 ha      1  R51        0.0905
     15 C7          1.2410    4.3910   -0.5220 ca      1  R51       -0.3016
     16 H8          2.0350    4.7740   -1.1430 ha      1  R51        0.1514
     17 C8          1.0660    3.0270   -0.4010 ca      1  R51        0.4720
     18 F1          1.9050    2.2070   -1.0800 f       1  R51       -0.2877
     19 CA          0.1300   -1.8610   -0.9940 c3      1  R51       -0.0416
     20 H9          0.9360   -1.3140   -1.4870 h1      1  R51        0.0582
     21 H10        -0.2020   -2.6880   -1.6260 h1      1  R51        0.0582
     22 C           0.6190   -2.4090    0.3530 c       1  R51        0.6497
     23 O           0.3330   -1.8640    1.4000 o       1  R51       -0.5837
@<TRIPOS>BOND
     1     4     2    1
     2    21    19    1
     3    20    19    1
     4    16    15    1
     5    18    17    1
     6    19     1    1
     7    19    22    1
     8     3     2    1
     9     2     1    1
    10     2     5    1
    11    15    17   ar
    12    15    13   ar
    13    17     8   ar
    14    14    13    1
    15    13    11   ar
    16    22    23    2
    17     8     5    1
    18     8     9   ar
    19     5     6    1
    20     5     7    1
    21    11     9   ar
    22    11    12    1
    23     9    10    1
@<TRIPOS>SUBSTRUCTURE
      1 R51               1 ****               0 ****  ****
@<TRIPOS>HEADTAIL
N  1
C  1
@<TRIPOS>RESIDUECONNECT
1 N C 0 0 0 0