@<TRIPOS>MOLECULE
R52
 27 28 0 0 0
SMALL
GASTEIGER

@<TRIPOS>ATOM
      1 N          -0.8680    1.1760   -0.1490 n       1  R52       -0.2237
      2 C1         -0.2660    0.2190   -1.0530 c3      1  R52       -0.1193
      3 H1          0.5170    0.7310   -1.6220 h1      1  R52        0.0600
      4 H2         -1.0160   -0.1330   -1.7600 h1      1  R52        0.0600
      5 C2          0.3360   -0.9850   -0.3220 c3      1  R52        0.3615
      6 H3          1.1490   -0.6480    0.3290 hc      1  R52       -0.0880
      7 C3          0.9140   -2.0300   -1.2940 c3      1  R52       -0.1057
      8 H4          1.9510   -1.8240   -1.5580 hc      1  R52        0.0204
      9 H5          0.3330   -2.0580   -2.2210 hc      1  R52        0.0204
     10 C4          0.7490   -3.3240   -0.5520 ca      1  R52        0.0425
     11 C5          1.3450   -4.5440   -0.7940 ca      1  R52       -0.1223
     12 H6          2.0470   -4.6640   -1.6070 ha      1  R52        0.0931
     13 C6          1.0300   -5.6170    0.0290 ca      1  R52       -0.1331
     14 H7          1.4930   -6.5780   -0.1450 ha      1  R52        0.1025
     15 C7          0.1320   -5.4660    1.0710 ca      1  R52       -0.1331
     16 H8         -0.1010   -6.3100    1.7040 ha      1  R52        0.1025
     17 C8         -0.4710   -4.2390    1.3120 ca      1  R52       -0.1193
     18 H9         -1.1720   -4.1230    2.1260 ha      1  R52        0.0931
     19 C9         -0.1550   -3.1720    0.4960 ca      1  R52        0.0349
     20 C10        -0.6740   -1.7650    0.5410 c3      1  R52       -0.1057
     21 H10        -0.7520   -1.3720    1.5550 hc      1  R52        0.0185
     22 H11        -1.6720   -1.7310    0.0950 hc      1  R52        0.0185
     23 CA          0.0370    1.9870    0.6370 c3      1  R52       -0.0941
     24 H12         0.8200    1.3630    1.0750 h1      1  R52        0.0765
     25 H13        -0.5580    2.4400    1.4330 h1      1  R52        0.0765
     26 C           0.6740    3.0840   -0.2190 c       1  R52        0.6307
     27 O           0.6170    3.0690   -1.4340 o       1  R52       -0.5673
@<TRIPOS>BOND
     1     9     7    1
     2     4     2    1
     3     3     2    1
     4    12    11    1
     5     8     7    1
     6    27    26    2
     7     7    10    1
     8     7     5    1
     9     2     5    1
    10     2     1    1
    11    11    10   ar
    12    11    13   ar
    13    10    19   ar
    14     5     6    1
    15     5    20    1
    16    26    23    1
    17     1    23    1
    18    14    13    1
    19    13    15   ar
    20    22    20    1
    21    19    20    1
    22    19    17   ar
    23    20    21    1
    24    23    24    1
    25    23    25    1
    26    15    17   ar
    27    15    16    1
    28    17    18    1
@<TRIPOS>SUBSTRUCTURE
      1 R52               1 ****               0 ****  ****
@<TRIPOS>HEADTAIL
N  1
C  1
@<TRIPOS>RESIDUECONNECT
1 N C 0 0 0 0