@<TRIPOS>MOLECULE
R53
 23 23 0 0 0
SMALL
GASTEIGER

@<TRIPOS>ATOM
      1 N          -0.9350   -1.6860    0.7670 n       1  R53       -0.3142
      2 C1         -1.1460   -0.2560    0.7300 c3      1  R53        0.3424
      3 H1         -0.5180    0.1880    1.5060 h1      1  R53       -0.0460
      4 H2         -2.1870   -0.0170    0.9590 h1      1  R53       -0.0460
      5 C2         -0.7530    0.3740   -0.6200 c3      1  R53       -0.0891
      6 H3         -1.4870    0.1230   -1.3870 hc      1  R53        0.0194
      7 H4          0.2130   -0.0290   -0.9240 hc      1  R53        0.0194
      8 C3         -0.6410    1.8640   -0.4710 ca      1  R53        0.2195
      9 C4          0.5010    2.4020    0.1120 ca      1  R53       -0.4392
     10 H5          1.3100    1.7640    0.4370 ha      1  R53        0.2652
     11 C5          0.5880    3.7710    0.2730 ca      1  R53        0.4650
     12 F1          1.6970    4.2950    0.8340 f       1  R53       -0.2900
     13 C6         -0.4240    4.6260   -0.1240 ca      1  R53       -0.2479
     14 H6         -0.3170    5.6900    0.0170 ha      1  R53        0.1437
     15 C7         -1.5580    4.0810   -0.6990 ca      1  R53       -0.0592
     16 H7         -2.3610    4.7290   -1.0170 ha      1  R53        0.1066
     17 C8         -1.6660    2.7110   -0.8700 ca      1  R53       -0.2896
     18 H8         -2.5550    2.2970   -1.3230 ha      1  R53        0.1325
     19 CA          0.3290   -2.1200    1.3380 c3      1  R53       -0.0137
     20 H9          0.3250   -3.2090    1.3880 h1      1  R53        0.0409
     21 H10         0.4120   -1.7160    2.3530 h1      1  R53        0.0409
     22 C           1.5330   -1.5770    0.5640 c       1  R53        0.6556
     23 O           2.0990   -0.5700    0.9590 o       1  R53       -0.6162
@<TRIPOS>BOND
     1     6     5    1
     2    18    17    1
     3    16    15    1
     4     7     5    1
     5    17    15   ar
     6    17     8   ar
     7    15    13   ar
     8     5     8    1
     9     5     2    1
    10     8     9   ar
    11    13    14    1
    12    13    11   ar
    13     9    11   ar
    14     9    10    1
    15    11    12    1
    16    22    23    2
    17    22    19    1
    18     2     1    1
    19     2     4    1
    20     2     3    1
    21     1    19    1
    22    19    20    1
    23    19    21    1
@<TRIPOS>SUBSTRUCTURE
      1 R53               1 ****               0 ****  ****
@<TRIPOS>HEADTAIL
N  1
C  1
@<TRIPOS>RESIDUECONNECT
1 N C 0 0 0 0