@<TRIPOS>MOLECULE
R54
 23 23 0 0 0
SMALL
GASTEIGER

@<TRIPOS>ATOM
      1 N           0.9120    0.1530    0.0380 n       1  R54       -0.3678
      2 C1          0.9070   -0.9300   -0.9300 c3      1  R54        0.4369
      3 H1          1.9370   -1.2810   -1.0360 h1      1  R54       -0.0542
      4 C2          0.4410   -0.4310   -2.3000 c3      1  R54       -0.1025
      5 H2         -0.6310   -0.2510   -2.3130 hc      1  R54        0.0093
      6 H3          0.6910   -1.1520   -3.0740 hc      1  R54        0.0093
      7 H4          0.9370    0.5110   -2.5190 hc      1  R54        0.0093
      8 C3          0.0950   -2.0890   -0.3760 ca      1  R54        0.0793
      9 C4          0.2420   -2.4250    0.9670 ca      1  R54       -0.2218
     10 H5          0.9140   -1.8490    1.5860 ha      1  R54        0.1030
     11 C5         -0.4630   -3.4790    1.5170 ca      1  R54       -0.0152
     12 H6         -0.3370   -3.7220    2.5620 ha      1  R54        0.0777
     13 C6         -1.3280   -4.2210    0.7300 ca      1  R54       -0.1723
     14 H7         -1.8800   -5.0450    1.1570 ha      1  R54        0.1066
     15 C7         -1.4750   -3.9020   -0.6070 ca      1  R54       -0.0152
     16 H8         -2.1440   -4.4770   -1.2310 ha      1  R54        0.0777
     17 C8         -0.7690   -2.8440   -1.1580 ca      1  R54       -0.2218
     18 H9         -0.8980   -2.6170   -2.2040 ha      1  R54        0.1030
     19 CA         -0.3560    0.7660    0.3750 c3      1  R54        0.0784
     20 H10        -0.3940    0.8960    1.4600 h1      1  R54        0.0228
     21 H11        -1.1690    0.1130    0.0550 h1      1  R54        0.0228
     22 C          -0.4690    2.1360   -0.3060 c       1  R54        0.5788
     23 O           0.2410    2.4420   -1.2430 o       1  R54       -0.5441
@<TRIPOS>BOND
     1     6     4    1
     2     7     4    1
     3     5     4    1
     4     4     2    1
     5    18    17    1
     6    23    22    2
     7    16    15    1
     8    17    15   ar
     9    17     8   ar
    10     3     2    1
    11     2     8    1
    12     2     1    1
    13    15    13   ar
    14     8     9   ar
    15    22    19    1
    16     1    19    1
    17    21    19    1
    18    19    20    1
    19    13    14    1
    20    13    11   ar
    21     9    11   ar
    22     9    10    1
    23    11    12    1
@<TRIPOS>SUBSTRUCTURE
      1 R54               1 ****               0 ****  ****
@<TRIPOS>HEADTAIL
N  1
C  1
@<TRIPOS>RESIDUECONNECT
1 N C 0 0 0 0