@<TRIPOS>MOLECULE
R55
 29 30 0 0 0
SMALL
GASTEIGER

@<TRIPOS>ATOM
      1 N          -0.8810    1.1530    0.2140 n       1  R55       -0.3516
      2 C1         -0.1190    0.0050    0.6920 c3      1  R55        0.7384
      3 H1          0.9200    0.2580    0.4560 h1      1  R55       -0.1302
      4 C2         -0.1740   -0.1720    2.2160 c3      1  R55       -0.2347
      5 H2         -1.0530   -0.7180    2.5420 hc      1  R55        0.0295
      6 H3         -0.1510    0.8100    2.6800 hc      1  R55        0.0295
      7 H4          0.6980   -0.7240    2.5540 hc      1  R55        0.0295
      8 C3         -0.4670   -1.2770   -0.0470 ca      1  R55       -0.3228
      9 C4          0.4100   -2.3980    0.0220 ca      1  R55        0.1466
     10 C5          1.6800   -2.3610    0.6410 ca      1  R55       -0.2211
     11 H5          2.0470   -1.4380    1.0600 ha      1  R55        0.1349
     12 C6          2.4790   -3.4690    0.6950 ca      1  R55       -0.1102
     13 H6          3.4470   -3.4120    1.1700 ha      1  R55        0.0978
     14 C7          2.0570   -4.6830    0.1350 ca      1  R55       -0.0470
     15 H7          2.6950   -5.5510    0.1980 ha      1  R55        0.0919
     16 C8          0.8520   -4.7480   -0.5030 ca      1  R55       -0.2705
     17 H8          0.5230   -5.6690   -0.9640 ha      1  R55        0.1295
     18 C9          0.0120   -3.6180   -0.5910 ca      1  R55        0.2360
     19 C10        -1.2080   -3.6830   -1.2950 ca      1  R55       -0.2380
     20 H9         -1.4980   -4.6190   -1.7500 ha      1  R55        0.1278
     21 C11        -1.9910   -2.5730   -1.4150 ca      1  R55       -0.0895
     22 H10        -2.9110   -2.6050   -1.9800 ha      1  R55        0.0926
     23 C12        -1.6170   -1.3750   -0.7900 ca      1  R55       -0.0888
     24 H11        -2.2600   -0.5170   -0.9100 ha      1  R55        0.1251
     25 CA         -0.1720    2.0120   -0.7120 c3      1  R55       -0.0869
     26 H12        -0.9200    2.6610   -1.1760 h1      1  R55        0.0676
     27 H13         0.3150    1.4060   -1.4830 h1      1  R55        0.0676
     28 C           0.8640    2.8690    0.0160 c       1  R55        0.6108
     29 O           1.1800    2.6560    1.1720 o       1  R55       -0.5638
@<TRIPOS>BOND
     1    22    21    1
     2    20    19    1
     3    27    25    1
     4    21    19   ar
     5    21    23   ar
     6    19    18   ar
     7    26    25    1
     8    17    16    1
     9    24    23    1
    10    23     8   ar
    11    25    28    1
    12    25     1    1
    13    18    16   ar
    14    18     9   ar
    15    16    14   ar
    16     8     9   ar
    17     8     2    1
    18    28    29    2
    19     9    10   ar
    20    14    15    1
    21    14    12   ar
    22     1     2    1
    23     3     2    1
    24    10    12   ar
    25    10    11    1
    26     2     4    1
    27    12    13    1
    28     4     5    1
    29     4     7    1
    30     4     6    1
@<TRIPOS>SUBSTRUCTURE
      1 R55               1 ****               0 ****  ****
@<TRIPOS>HEADTAIL
N  1
C  1
@<TRIPOS>RESIDUECONNECT
1 N C 0 0 0 0