@<TRIPOS>MOLECULE
R56
 29 30 0 0 0
SMALL
GASTEIGER

@<TRIPOS>ATOM
      1 N           0.8350   -1.6500   -0.0390 n       1  R56       -0.3540
      2 C1          0.8580   -0.9700    1.2590 c3      1  R56        0.7205
      3 H1          1.9050   -0.7780    1.5240 h1      1  R56       -0.1402
      4 C2          0.2650   -1.8470    2.3670 c3      1  R56       -0.3077
      5 H2         -0.7180   -2.2080    2.0800 hc      1  R56        0.0441
      6 H3          0.2010   -1.2800    3.2920 hc      1  R56        0.0441
      7 H4          0.8980   -2.7110    2.5420 hc      1  R56        0.0441
      8 C3          0.1780    0.3800    1.1340 ca      1  R56       -0.2733
      9 C4          0.8240    1.4240    0.4080 ca      1  R56        0.1371
     10 C5          2.0750    1.2630   -0.2300 ca      1  R56       -0.2324
     11 H5          2.5810    0.3110   -0.1880 ha      1  R56        0.1292
     12 C6          2.6560    2.2870   -0.9260 ca      1  R56       -0.1217
     13 H6          3.6110    2.1380   -1.4070 ha      1  R56        0.1074
     14 C7          2.0220    3.5330   -1.0240 ca      1  R56       -0.0293
     15 H7          2.4960    4.3320   -1.5750 ha      1  R56        0.0890
     16 C8          0.8090    3.7250   -0.4280 ca      1  R56       -0.2834
     17 H8          0.3040    4.6780   -0.4990 ha      1  R56        0.1304
     18 C9          0.1810    2.6870    0.2930 ca      1  R56        0.2379
     19 C10        -1.0830    2.8810    0.8880 ca      1  R56       -0.2301
     20 H9         -1.5610    3.8460    0.7900 ha      1  R56        0.1214
     21 C11        -1.6860    1.8640    1.5680 ca      1  R56       -0.0539
     22 H10        -2.6550    2.0060    2.0230 ha      1  R56        0.0785
     23 C12        -1.0530    0.6180    1.6890 ca      1  R56       -0.1347
     24 H11        -1.5670   -0.1610    2.2270 ha      1  R56        0.1680
     25 CA         -0.1650   -1.2560   -1.0170 c3      1  R56       -0.0652
     26 H12        -0.0430   -1.9510   -1.8570 h1      1  R56        0.0702
     27 H13         0.0510   -0.2440   -1.3680 h1      1  R56        0.0702
     28 C          -1.5960   -1.3700   -0.5130 c       1  R56        0.5827
     29 O          -1.9320   -2.1780    0.3320 o       1  R56       -0.5489
@<TRIPOS>BOND
     1    26    25    1
     2    15    14    1
     3    13    12    1
     4    27    25    1
     5    14    12   ar
     6    14    16   ar
     7    25    28    1
     8    25     1    1
     9    12    10   ar
    10    28    29    2
    11    17    16    1
    12    16    18   ar
    13    10    11    1
    14    10     9   ar
    15     1     2    1
    16    18     9   ar
    17    18    19   ar
    18     9     8   ar
    19    20    19    1
    20    19    21   ar
    21     8     2    1
    22     8    23   ar
    23     2     3    1
    24     2     4    1
    25    21    23   ar
    26    21    22    1
    27    23    24    1
    28     5     4    1
    29     4     7    1
    30     4     6    1
@<TRIPOS>SUBSTRUCTURE
      1 R56               1 ****               0 ****  ****
@<TRIPOS>HEADTAIL
N  1
C  1
@<TRIPOS>RESIDUECONNECT
1 N C 0 0 0 0