@<TRIPOS>MOLECULE
R57
 29 29 0 0 0
SMALL
GASTEIGER

@<TRIPOS>ATOM
      1 N           0.6940    0.3660    0.1600 n       1  R57       -0.3510
      2 C1          0.2040   -0.5610   -0.8570 c3      1  R57        0.4617
      3 H1         -0.8130   -0.2160   -1.0720 h1      1  R57       -0.1743
      4 C2          0.9760   -0.4660   -2.1750 c3      1  R57       -0.0523
      5 H2          1.8740   -1.0750   -2.1750 hc      1  R57        0.0967
      6 H3          1.2370    0.5740   -2.3520 hc      1  R57        0.0715
      7 H4          0.3420   -0.7940   -2.9940 hc      1  R57        0.1304
      8 C3          0.0850   -2.0100   -0.3310 c3      1  R57        0.0715
      9 H5          1.0770   -2.4670   -0.2820 hc      1  R57        0.0967
     10 C4         -0.7700   -2.8580   -1.2770 c3      1  R57        0.0458
     11 H6         -0.3340   -2.8600   -2.2760 hc      1  R57        0.5447
     12 H7         -1.7710   -2.4250   -1.3470 hc      1  R57       -0.5338
     13 C5         -0.8750   -4.2960   -0.7720 c3      1  R57       -0.0719
     14 H8          0.1190   -4.7480   -0.7570 hc      1  R57        0.0272
     15 H9         -1.4960   -4.8790   -1.4550 hc      1  R57        0.0272
     16 C6         -1.4670   -4.3340    0.6330 c3      1  R57        0.0272
     17 H10        -1.5110   -5.3650    0.9910 hc      1  R57       -0.0167
     18 H11        -2.4870   -3.9440    0.6080 hc      1  R57       -0.0492
     19 C7         -0.6240   -3.4870    1.5800 c3      1  R57       -0.0492
     20 H12         0.3790   -3.9140    1.6540 hc      1  R57       -0.0411
     21 H13        -1.0630   -3.4950    2.5800 hc      1  R57       -0.0411
     22 C8         -0.5280   -2.0520    1.0720 c3      1  R57       -0.0560
     23 H14         0.0780   -1.4600    1.7610 hc      1  R57       -0.0514
     24 H15        -1.5300   -1.6170    1.0410 hc      1  R57       -0.0411
     25 CA         -0.2620    1.3420    0.6440 c3      1  R57       -0.0411
     26 H16         0.1200    1.7180    1.5970 h1      1  R57       -0.0492
     27 H17        -1.2350    0.8710    0.8030 h1      1  R57       -0.0492
     28 C          -0.3990    2.5100   -0.3350 c       1  R57        0.0340
     29 O           0.0930    2.4840   -1.4460 o       1  R57        0.0340
@<TRIPOS>BOND
     1     7     4    1
     2     6     4    1
     3    11    10    1
     4     4     5    1
     5     4     2    1
     6    15    13    1
     7    29    28    2
     8    12    10    1
     9    10    13    1
    10    10     8    1
    11     3     2    1
    12     2     8    1
    13     2     1    1
    14    13    14    1
    15    13    16    1
    16    28    25    1
    17     8     9    1
    18     8    22    1
    19     1    25    1
    20    18    16    1
    21    16    17    1
    22    16    19    1
    23    25    27    1
    24    25    26    1
    25    24    22    1
    26    22    19    1
    27    22    23    1
    28    19    20    1
    29    19    21    1
@<TRIPOS>SUBSTRUCTURE
      1 R57               1 ****               0 ****  ****
@<TRIPOS>HEADTAIL
N  1
C  1
@<TRIPOS>RESIDUECONNECT
1 N C 0 0 0 0