@<TRIPOS>MOLECULE
R58
 29 29 0 0 0
SMALL
GASTEIGER

@<TRIPOS>ATOM
      1 N           0.5160   -0.2320    0.1730 n       1  R58       -0.3110
      2 C1          0.6190    0.7920    1.2010 c3      1  R58        0.3721
      3 H1          1.6860    0.9410    1.3840 h1      1  R58       -0.0606
      4 C2          0.0050    0.3270    2.5260 c3      1  R58       -0.0935
      5 H2         -1.0700    0.4780    2.5570 hc      1  R58        0.0080
      6 H3          0.4450    0.8870    3.3470 hc      1  R58        0.0080
      7 H4          0.2100   -0.7310    2.6710 hc      1  R58        0.0080
      8 C3          0.0540    2.1650    0.7540 c3      1  R58       -0.0063
      9 H5          0.0700    2.8010    1.6480 hc      1  R58       -0.0362
     10 C4         -1.3820    2.1230    0.2290 c3      1  R58        0.1128
     11 H6         -2.0480    1.6730    0.9670 hc      1  R58       -0.0492
     12 H7         -1.4190    1.5240   -0.6820 hc      1  R58       -0.0492
     13 C5         -1.8790    3.5310   -0.0910 c3      1  R58        0.0400
     14 H8         -1.8720    4.1370    0.8190 hc      1  R58       -0.0346
     15 H9         -2.9090    3.4830   -0.4510 hc      1  R58       -0.0346
     16 C6         -0.9890    4.1830   -1.1420 c3      1  R58        0.1559
     17 H10        -1.3380    5.1960   -1.3540 hc      1  R58       -0.0573
     18 H11        -1.0420    3.6090   -2.0700 hc      1  R58       -0.0621
     19 C7          0.4530    4.2210   -0.6520 c3      1  R58        0.0400
     20 H12         0.5160    4.8540    0.2370 hc      1  R58       -0.0346
     21 H13         1.0980    4.6580   -1.4180 hc      1  R58       -0.0346
     22 C8          0.9450    2.8180   -0.3060 c3      1  R58        0.1128
     23 H14         1.9710    2.8850    0.0650 hc      1  R58       -0.0492
     24 H15         0.9450    2.2000   -1.2070 hc      1  R58       -0.0492
     25 CA         -0.7200   -0.9830    0.0020 c3      1  R58        0.0289
     26 H16        -1.0390   -0.9130   -1.0370 h1      1  R58        0.0334
     27 H17        -1.4860   -0.5700    0.6540 h1      1  R58        0.0334
     28 C          -0.4750   -2.4360    0.4340 c       1  R58        0.5404
     29 O           0.0220   -2.6610    1.5260 o       1  R58       -0.5315
@<TRIPOS>BOND
     1    18    16    1
     2    21    19    1
     3    17    16    1
     4    24    22    1
     5    16    19    1
     6    16    13    1
     7    26    25    1
     8    12    10    1
     9    19    22    1
    10    19    20    1
    11    15    13    1
    12    22    23    1
    13    22     8    1
    14    13    10    1
    15    13    14    1
    16    25     1    1
    17    25    28    1
    18    25    27    1
    19     1     2    1
    20    10     8    1
    21    10    11    1
    22    28    29    2
    23     8     2    1
    24     8     9    1
    25     2     3    1
    26     2     4    1
    27     4     5    1
    28     4     7    1
    29     4     6    1
@<TRIPOS>SUBSTRUCTURE
      1 R58               1 ****               0 ****  ****
@<TRIPOS>HEADTAIL
N  1
C  1
@<TRIPOS>RESIDUECONNECT
1 N C 0 0 0 0