@<TRIPOS>MOLECULE
R59
 17 16 0 0 0
SMALL
GASTEIGER

@<TRIPOS>ATOM
      1 N          -1.1880   -0.3650    0.0070 n       1  R59       -0.2953
      2 C1         -0.7580   -1.2630   -1.0470 c3      1  R59        0.1579
      3 H1         -0.9130   -0.7880   -2.0250 h1      1  R59       -0.0143
      4 H2         -1.3570   -2.1750   -0.9920 h1      1  R59       -0.0143
      5 C2          0.7070   -1.6600   -0.9690 c3      1  R59        0.2654
      6 H3          1.3630   -0.7930   -1.0380 h1      1  R59       -0.0311
      7 H4          0.9250   -2.3370   -1.7970 h1      1  R59       -0.0311
      8 S1          1.0950   -2.5650    0.5760 ss      1  R59       -0.3461
      9 C3          2.8040   -3.0250    0.1770 c3      1  R59        0.0873
     10 H5          3.1950   -3.5600    1.0350 h1      1  R59        0.0220
     11 H6          3.3910   -2.1280   -0.0040 h1      1  R59        0.0220
     12 H7          2.8130   -3.6690   -0.6990 h1      1  R59        0.0220
     13 CA         -0.2400    0.5430    0.6130 c3      1  R59        0.1170
     14 H8          0.5730   -0.0190    1.0840 h1      1  R59        0.0132
     15 H9         -0.7970    1.0710    1.3920 h1      1  R59        0.0132
     16 C           0.3150    1.5510   -0.3870 c       1  R59        0.5878
     17 O           0.1130    1.4640   -1.5860 o       1  R59       -0.5756
@<TRIPOS>BOND
     1     3     2    1
     2     7     5    1
     3    17    16    2
     4     2     4    1
     5     2     5    1
     6     2     1    1
     7     6     5    1
     8     5     8    1
     9    12     9    1
    10    16    13    1
    11    11     9    1
    12     1    13    1
    13     9     8    1
    14     9    10    1
    15    13    14    1
    16    13    15    1
@<TRIPOS>SUBSTRUCTURE
      1 R59               1 ****               0 ****  ****
@<TRIPOS>HEADTAIL
N  1
C  1
@<TRIPOS>RESIDUECONNECT
1 N C 0 0 0 0