@<TRIPOS>MOLECULE
R60
 21 21 0 0 0
SMALL
GASTEIGER

@<TRIPOS>ATOM
      1 N           0.8910   -0.6210   -0.1850 n       1  R60       -0.3306
      2 C1          0.3230    0.2710   -1.1670 c3      1  R60        0.2274
      3 H1         -0.5620   -0.2160   -1.5850 h1      1  R60        0.0017
      4 H2          1.0230    0.4040   -1.9950 h1      1  R60        0.0017
      5 C2         -0.0600    1.6240   -0.6080 ca      1  R60        0.0505
      6 C3          0.2970    2.0250    0.6700 ca      1  R60       -0.1534
      7 H3          0.8640    1.3650    1.3090 ha      1  R60        0.1190
      8 C4         -0.0640    3.2740    1.1470 ca      1  R60       -0.3123
      9 H4          0.2230    3.5730    2.1470 ha      1  R60        0.1631
     10 C5         -0.7890    4.1460    0.3460 ca      1  R60        0.4763
     11 O1         -1.1640    5.3830    0.7700 oh      1  R60       -0.5639
     12 H5         -0.8480    5.5310    1.6690 ho      1  R60        0.3550
     13 C6         -1.1520    3.7500   -0.9390 ca      1  R60       -0.3123
     14 H6         -1.7160    4.4330   -1.5530 ha      1  R60        0.1631
     15 C7         -0.7890    2.5030   -1.4030 ca      1  R60       -0.1534
     16 H7         -1.0740    2.2010   -2.4000 ha      1  R60        0.1190
     17 CA         -0.0320   -1.4540    0.5510 c3      1  R60        0.0925
     18 H8         -0.8660   -0.8460    0.9210 h1      1  R60        0.0145
     19 H9          0.5250   -1.8680    1.3950 h1      1  R60        0.0145
     20 C          -0.5720   -2.5880   -0.3210 c       1  R60        0.6055
     21 O          -0.4280   -2.5980   -1.5290 o       1  R60       -0.5779
@<TRIPOS>BOND
     1    16    15    1
     2     4     2    1
     3     3     2    1
     4    14    13    1
     5    21    20    2
     6    15    13   ar
     7    15     5   ar
     8     2     5    1
     9     2     1    1
    10    13    10   ar
    11     5     6   ar
    12    20    17    1
    13     1    17    1
    14    10    11    1
    15    10     8   ar
    16    17    18    1
    17    17    19    1
    18     6     8   ar
    19     6     7    1
    20    11    12    1
    21     8     9    1
@<TRIPOS>SUBSTRUCTURE
      1 R60               1 ****               0 ****  ****
@<TRIPOS>HEADTAIL
N  1
C  1
@<TRIPOS>RESIDUECONNECT
1 N C 0 0 0 0