@<TRIPOS>MOLECULE
R61
 24 25 0 0 0
SMALL
GASTEIGER

@<TRIPOS>ATOM
      1 N          -1.1220    1.5010   -0.0540 n       1  R61       -0.3943
      2 C1         -1.3740    0.5080   -1.0890 c3      1  R61        0.4055
      3 H1         -0.5630    0.5660   -1.8210 h1      1  R61       -0.0378
      4 H2         -2.3100    0.7370   -1.5910 h1      1  R61       -0.0378
      5 C2         -1.4340   -0.8690   -0.5050 cc      1  R61       -0.2436
      6 C3         -2.5170   -1.4710    0.0700 cd      1  R61       -0.1575
      7 H3         -3.5190   -1.1030    0.1810 h4      1  R61        0.1663
      8 N2         -2.1770   -2.7130    0.5330 na      1  R61       -0.3123
      9 H4         -2.8020   -3.3570    0.9860 hn      1  R61        0.3027
     10 C4         -0.8570   -2.9400    0.2690 ca      1  R61        0.2084
     11 C5         -0.0550   -4.0400    0.5480 ca      1  R61       -0.2933
     12 H5         -0.4550   -4.9090    1.0480 ha      1  R61        0.1418
     13 C6          1.2660   -3.9790    0.1610 ca      1  R61       -0.0452
     14 H6          1.9180   -4.8160    0.3610 ha      1  R61        0.0787
     15 C7          1.7810   -2.8550   -0.4920 ca      1  R61       -0.1292
     16 H7          2.8220   -2.8520   -0.7820 ha      1  R61        0.1019
     17 C8          0.9920   -1.7640   -0.7750 ca      1  R61       -0.3037
     18 H8          1.3980   -0.9030   -1.2840 ha      1  R61        0.1813
     19 C9         -0.3490   -1.7940   -0.3880 ca      1  R61        0.1959
     20 CA          0.1330    1.3650    0.6520 c3      1  R61        0.0798
     21 H9          0.2210    0.3460    1.0420 h1      1  R61        0.0390
     22 H10         0.1030    2.0840    1.4760 h1      1  R61        0.0390
     23 C           1.3230    1.6800   -0.2550 c       1  R61        0.5795
     24 O           1.1750    2.0200   -1.4140 o       1  R61       -0.5651
@<TRIPOS>BOND
     1     3     2    1
     2     4     2    1
     3    24    23    2
     4    18    17    1
     5     2     5    1
     6     2     1    1
     7    16    15    1
     8    17    15   ar
     9    17    19   ar
    10     5    19   ar
    11     5     6   ar
    12    15    13   ar
    13    19    10   ar
    14    23    20    1
    15     1    20    1
    16     6     7    1
    17     6     8   ar
    18    13    14    1
    19    13    11   ar
    20    10     8   ar
    21    10    11   ar
    22     8     9    1
    23    11    12    1
    24    20    21    1
    25    20    22    1
@<TRIPOS>SUBSTRUCTURE
      1 R61               1 ****               0 ****  ****
@<TRIPOS>HEADTAIL
N  1
C  1
@<TRIPOS>RESIDUECONNECT
1 N C 0 0 0 0