@<TRIPOS>MOLECULE
R62
 23 22 0 0 0
SMALL
GASTEIGER

@<TRIPOS>ATOM
      1 N          -1.2950    1.1340    0.5470 n       1  R62       -0.3108
      2 C1         -1.3000   -0.2620    0.9170 c3      1  R62        0.0589
      3 H1         -2.3010   -0.6650    0.7530 h1      1  R62       -0.0145
      4 H2         -1.0960   -0.3220    1.9940 h1      1  R62       -0.0145
      5 C2         -0.2780   -1.1090    0.1570 c3      1  R62        0.0691
      6 H3          0.7360   -0.8040    0.4140 hc      1  R62       -0.0030
      7 H4         -0.3920   -0.9580   -0.9150 hc      1  R62       -0.0030
      8 C3         -0.4430   -2.5930    0.4820 c3      1  R62        0.6180
      9 H5         -1.4480   -2.9250    0.1750 h1      1  R62       -0.1232
     10 H6         -0.3700   -2.7350    1.5740 h1      1  R62       -0.1232
     11 N2          0.5800   -3.3330   -0.2060 n2      1  R62       -0.9192
     12 C4          0.6630   -4.5940   -0.1200 c2      1  R62        1.0483
     13 N3         -0.2130   -5.4470    0.5390 nh      1  R62       -0.9390
     14 H7         -0.7530   -5.0220    1.2760 hn      1  R62        0.3543
     15 H8          0.1610   -6.3500    0.7850 hn      1  R62        0.3543
     16 N4          1.7240   -5.2350   -0.7340 nh      1  R62       -0.9390
     17 H9          2.2120   -4.6260   -1.3740 hn      1  R62        0.3559
     18 H10         1.5130   -6.1420   -1.1220 hn      1  R62        0.3559
     19 CA         -0.2060    1.9620    1.0170 c3      1  R62        0.1506
     20 H11         0.2680    1.4850    1.8770 h1      1  R62        0.0017
     21 H12        -0.6190    2.9320    1.3090 h1      1  R62        0.0017
     22 C           0.8220    2.1720   -0.1030 c       1  R62        0.5487
     23 O           0.8210    1.4880   -1.1050 o       1  R62       -0.5280
@<TRIPOS>BOND
     1    17    16    1
     2    18    16    1
     3    23    22    2
     4     7     5    1
     5    16    12    2
     6    11    12    1
     7    11     8    1
     8    12    13    1
     9    22    19    1
    10     5     6    1
    11     5     8    1
    12     5     2    1
    13     9     8    1
    14     8    10    1
    15    13    15    1
    16    13    14    1
    17     1     2    1
    18     1    19    1
    19     3     2    1
    20     2     4    1
    21    19    21    1
    22    19    20    1
@<TRIPOS>SUBSTRUCTURE
      1 R62               1 ****               0 ****  ****
@<TRIPOS>HEADTAIL
N  1
C  1
@<TRIPOS>RESIDUECONNECT
1 N C 0 0 0 0