@<TRIPOS>MOLECULE
R63
 17 17 0 0 0
SMALL
GASTEIGER

@<TRIPOS>ATOM
      1 N          -0.8930    0.1450    0.0900 n       1  R63       -0.3324
      2 C1         -0.2780    0.9590    1.1190 c3      1  R63        0.0478
      3 H1          0.3700    0.3030    1.7060 h1      1  R63        0.0409
      4 H2         -1.0340    1.3730    1.7850 h1      1  R63        0.0409
      5 C2          0.5270    2.0640    0.5120 cc      1  R63        0.2856
      6 C3          0.3290    3.4160    0.5740 cd      1  R63       -0.2902
      7 H3         -0.4030    4.0060    1.0860 h4      1  R63        0.1639
      8 N2          1.3230    3.9800   -0.1770 na      1  R63       -0.1991
      9 H4          1.4650    4.9640   -0.3320 hn      1  R63        0.2846
     10 C4          2.0680    2.9600   -0.6630 cd      1  R63        0.1866
     11 H5          2.9210    3.1020   -1.2950 h5      1  R63        0.0686
     12 N3          1.6180    1.8040   -0.2690 nc      1  R63       -0.4758
     13 CA         -0.0320   -0.8480   -0.5130 c3      1  R63        0.1927
     14 H6          0.9280   -0.3780   -0.7530 h1      1  R63        0.0017
     15 H7         -0.5260   -1.1820   -1.4290 h1      1  R63        0.0017
     16 C           0.1850   -2.0310    0.4250 c       1  R63        0.5498
     17 O          -0.1910   -2.0230    1.5820 o       1  R63       -0.5673
@<TRIPOS>BOND
     1    15    13    1
     2    11    10    1
     3    14    13    1
     4    10    12   ar
     5    10     8   ar
     6    13     1    1
     7    13    16    1
     8     9     8    1
     9    12     5   ar
    10     8     6   ar
    11     1     2    1
    12    16    17    2
    13     5     6   ar
    14     5     2    1
    15     6     7    1
    16     2     3    1
    17     2     4    1
@<TRIPOS>SUBSTRUCTURE
      1 R63               1 ****               0 ****  ****
@<TRIPOS>HEADTAIL
N  1
C  1
@<TRIPOS>RESIDUECONNECT
1 N C 0 0 0 0