@<TRIPOS>MOLECULE
R64
 21 20 0 0 0
SMALL
GASTEIGER

@<TRIPOS>ATOM
      1 N          -0.8960    0.1820    0.0450 n       1  R64       -0.3623
      2 C1         -0.2430   -0.9370   -0.5970 c3      1  R64        0.3447
      3 H1          0.7180   -0.5890   -0.9820 h1      1  R64       -0.0289
      4 H2         -0.8330   -1.2680   -1.4520 h1      1  R64       -0.0289
      5 C2         -0.0240   -2.1070    0.3700 c3      1  R64       -0.0984
      6 H3         -0.9860   -2.4330    0.7720 hc      1  R64       -0.0070
      7 H4          0.5860   -1.7750    1.2130 hc      1  R64       -0.0070
      8 C3          0.6660   -3.2760   -0.3240 c3      1  R64        0.0587
      9 H5          1.6360   -2.9610   -0.7100 hc      1  R64       -0.0359
     10 H6          0.0630   -3.6050   -1.1730 hc      1  R64       -0.0359
     11 C4          0.8840   -4.4560    0.6210 c3      1  R64        0.5889
     12 H7         -0.0950   -4.8110    0.9900 h1      1  R64       -0.1161
     13 H8          1.4650   -4.1270    1.4880 h1      1  R64       -0.1161
     14 N2          1.6560   -5.4890   -0.0510 n3      1  R64       -0.8753
     15 H9          1.1480   -5.8370   -0.8580 hn      1  R64        0.2868
     16 H10         1.8200   -6.2730    0.5720 hn      1  R64        0.2868
     17 CA         -0.0450    1.1570    0.6880 c3      1  R64       -0.0522
     18 H11         0.7180    0.6510    1.2880 h1      1  R64        0.0711
     19 H12        -0.6880    1.7550    1.3390 h1      1  R64        0.0711
     20 C           0.6320    2.0590   -0.3470 c       1  R64        0.6340
     21 O           0.6370    1.7870   -1.5320 o       1  R64       -0.5781
@<TRIPOS>BOND
     1    21    20    2
     2     4     2    1
     3    10     8    1
     4     3     2    1
     5    15    14    1
     6     9     8    1
     7     2     1    1
     8     2     5    1
     9    20    17    1
    10     8     5    1
    11     8    11    1
    12    14    16    1
    13    14    11    1
    14     1    17    1
    15     5     6    1
    16     5     7    1
    17    11    12    1
    18    11    13    1
    19    17    18    1
    20    17    19    1
@<TRIPOS>SUBSTRUCTURE
      1 R64               1 ****               0 ****  ****
@<TRIPOS>HEADTAIL
N  1
C  1
@<TRIPOS>RESIDUECONNECT
1 N C 0 0 0 0