@<TRIPOS>MOLECULE
R65
 11 10 0 0 0
SMALL
GASTEIGER

@<TRIPOS>ATOM
      1 N          -0.2750   -0.9400    0.0480 n       1  R65        -0.3377
      2 C1          0.8130   -1.5250    0.7450 c3      1  R65         0.3779
      3 H1          0.4890   -2.2500    1.4850 h1      1  R65        -0.0007
      4 H2          1.4080   -0.7520    1.2300 h1      1  R65        -0.0007
      5 S1          1.9970   -2.3770   -0.4020 sh      1  R65        -0.3816
      6 H3          1.1470   -3.3150   -0.8160 hs      1  R65         0.1586
      7 CA          0.0000    0.3110   -0.6260 c3      1  R65         0.0623
      8 H3         -0.8340    0.4960   -1.3070 h1      1  R65         0.0334
      9 H4          0.9300    0.2150   -1.1980 h1      1  R65         0.0334
     10 C           0.1240    1.4520    0.3830 c       1  R65         0.6507
     11 O           0.1820    1.2420    1.5810 o       1  R65        -0.5956
@<TRIPOS>BOND
     1     8     7    1
     2     9     7    1
     3     6     5    1
     4     7     1    1
     5     7    10    1
     6     5     2    1
     7     1     2    1
     8    10    11    2
     9     2     4    1
    10     2     3    1
@<TRIPOS>SUBSTRUCTURE
      1 R65               1 ****               0 ****  ****
@<TRIPOS>HEADTAIL
N  1
C  1
@<TRIPOS>RESIDUECONNECT
1 N C 0 0 0 0