@<TRIPOS>MOLECULE
R66
 19 18 0 0 0
SMALL
GASTEIGER

@<TRIPOS>ATOM
      1 N          -1.1000   -0.1330    0.5530 n       1  R66       -0.2205
      2 C1         -1.3420   -1.5220    0.9010 c3      1  R66        0.0810
      3 H1         -2.3410   -1.6200    1.3410 h1      1  R66        0.0072
      4 H2         -0.6210   -1.7980    1.6720 h1      1  R66        0.0072
      5 C2         -1.2080   -2.5220   -0.2570 c3      1  R66        0.2639
      6 H3         -2.0330   -2.4120   -0.9600 hc      1  R66       -0.0664
      7 H4         -1.2580   -3.5240    0.1730 hc      1  R66       -0.0664
      8 C3          0.1180   -2.3720   -1.0010 c3      1  R66       -0.1692
      9 H5          0.2160   -1.3670   -1.4120 hc      1  R66        0.0100
     10 H6          0.1490   -3.0910   -1.8220 hc      1  R66        0.0100
     11 C4          1.2820   -2.6940   -0.0700 c       1  R66        0.9103
     12 O1          1.3450   -3.7250    0.5470 o       1  R66       -0.6349
     13 O2          2.2200   -1.7600    0.0380 oh      1  R66       -0.6834
     14 H7          1.9750   -0.9220   -0.4360 ho      1  R66        0.4031
     15 CA          0.0510    0.5560    1.1270 c3      1  R66       -0.0781
     16 H8          0.7110   -0.1820    1.5850 h1      1  R66        0.0609
     17 H9         -0.2910    1.2590    1.8890 h1      1  R66        0.0609
     18 C           0.8530    1.2550    0.0270 c       1  R66        0.6716
     19 O           1.3290    0.5700   -0.8830 o       1  R66       -0.5672
@<TRIPOS>BOND
     1    10     8    1
     2     9     8    1
     3     8     5    1
     4     8    11    1
     5     6     5    1
     6    19    18    2
     7    14    13    1
     8     5     7    1
     9     5     2    1
    10    11    13    1
    11    11    12    2
    12    18    15    1
    13     1     2    1
    14     1    15    1
    15     2     3    1
    16     2     4    1
    17    15    16    1
    18    15    17    1
@<TRIPOS>SUBSTRUCTURE
      1 R66               1 ****               0 ****  ****
@<TRIPOS>HEADTAIL
N  1
C  1
@<TRIPOS>RESIDUECONNECT
1 N C 0 0 0 0