@<TRIPOS>MOLECULE
R67
 11 10 0 0 0
SMALL
GASTEIGER

@<TRIPOS>ATOM
      1 N           0.1480    1.1940   -0.5640 n       1  R67       -0.3241
      2 C1         -1.1560    1.6920   -0.9550 c3      1  R67        0.5911
      3 H1         -1.5210    1.0320   -1.7570 h2      1  R67       -0.0736
      4 H2         -1.0650    2.7080   -1.3530 h2      1  R67       -0.0736
      5 O1         -2.0600    1.7540    0.0950 oh      1  R67       -0.6659
      6 H3         -2.0730    0.8650    0.5060 ho      1  R67        0.3835
      7 CA          0.4730   -0.1860   -0.8470 c3      1  R67       -0.0411
      8 H4          1.5380   -0.2950   -0.6260 h1      1  R67        0.0508
      9 H5          0.2960   -0.3980   -1.9080 h1      1  R67        0.0508
     10 C          -0.3360   -1.1640    0.0050 c       1  R67        0.6831
     11 O          -1.3330   -0.8170    0.6220 o       1  R67       -0.5810
@<TRIPOS>BOND
     1     9     7    1
     2     3     2    1
     3     4     2    1
     4     2     1    1
     5     2     5    1
     6     7     8    1
     7     7     1    1
     8     7    10    1
     9    10    11    2
    10     5     6    1
@<TRIPOS>SUBSTRUCTURE
      1 R67               1 ****               0 ****  ****
@<TRIPOS>HEADTAIL
N  1
C  1
@<TRIPOS>RESIDUECONNECT
1 N C 0 0 0 0