@<TRIPOS>MOLECULE
R68
 14 13 0 0 0
SMALL
GASTEIGER

@<TRIPOS>ATOM
      1 N           0.0610    0.9990    0.4050 n       1  R68       -0.3216
      2 C1         -1.1980    1.7640    0.3510 c3      1  R68        0.9055
      3 H1         -1.9460    1.1980    0.9190 h2      1  R68       -0.0721
      4 O1         -1.0590    2.9770    1.0100 oh      1  R68       -0.8508
      5 H2         -0.3660    3.4660    0.5300 ho      1  R68        0.4635
      6 C2         -1.6590    1.9210   -1.0980 c3      1  R68       -0.4496
      7 H3         -0.9600    2.5540   -1.6380 hc      1  R68        0.0906
      8 H4         -2.6430    2.3810   -1.1160 hc      1  R68        0.0906
      9 H5         -1.6950    0.9470   -1.5780 hc      1  R68        0.0906
     10 CA          0.0250   -0.3560    0.8900 c3      1  R68       -0.3307
     11 H6         -0.8140   -0.4460    1.5860 h1      1  R68        0.1224
     12 H7          0.9420   -0.5810    1.4410 h1      1  R68        0.1224
     13 C          -0.1590   -1.3750   -0.2430 c       1  R68        0.6902
     14 O          -0.3030   -1.0310   -1.3990 o       1  R68       -0.5510
@<TRIPOS>BOND
     1     7     6    1
     2     9     6    1
     3    14    13    2
     4     8     6    1
     5     6     2    1
     6    13    10    1
     7     2     1    1
     8     2     3    1
     9     2     4    1
    10     1    10    1
    11     5     4    1
    12    10    12    1
    13    10    11    1
@<TRIPOS>SUBSTRUCTURE
      1 R68               1 ****               0 ****  ****
@<TRIPOS>HEADTAIL
N  1
C  1
@<TRIPOS>RESIDUECONNECT
1 N C 0 0 0 0