@<TRIPOS>MOLECULE
R69
 14 13 0 0 0
SMALL
GASTEIGER

@<TRIPOS>ATOM
      1 N          -0.5810    0.6690    0.6500 n       1  R69       -0.1994
      2 C1         -0.1640    1.9830    1.0740 c3      1  R69       -0.0549
      3 H1          0.3860    1.8950    2.0140 h1      1  R69        0.0436
      4 H2         -1.0320    2.6230    1.2610 h1      1  R69        0.0436
      5 C2          0.7540    2.7370    0.0890 c       1  R69        0.8828
      6 O1          0.7020    3.9460   -0.0020 o       1  R69       -0.6971
      7 N2          1.5980    1.9620   -0.5970 n       1  R69       -0.9149
      8 H3          1.6190    0.9430   -0.5200 hn      1  R69        0.3804
      9 H4          2.2260    2.4050   -1.2480 hn      1  R69        0.3804
     10 CA         -0.0380   -0.5240    1.2800 c3      1  R69        0.0725
     11 H5         -0.8510   -1.0840    1.7450 h1      1  R69        0.0063
     12 H6          0.6850   -0.2260    2.0410 h1      1  R69        0.0063
     13 C           0.7090   -1.3550    0.2320 c       1  R69        0.6432
     14 O           1.6000   -0.8160   -0.4200 o       1  R69       -0.5928
@<TRIPOS>BOND
     1     9     7    1
     2     7     8    1
     3     7     5   am
     4    14    13    2
     5     6     5    2
     6     5     2    1
     7    13    10    1
     8     1     2    1
     9     1    10    1
    10     2     4    1
    11     2     3    1
    12    10    11    1
    13    10    12    1
@<TRIPOS>SUBSTRUCTURE
      1 R69               1 ****               0 ****  ****
@<TRIPOS>HEADTAIL
N  1
C  1
@<TRIPOS>RESIDUECONNECT
1 N C 0 0 0 0