@<TRIPOS>MOLECULE
R70
 17 16 0 0 0
SMALL
GASTEIGER

@<TRIPOS>ATOM
      1 N           0.8460    0.1470   -0.1690 n       1  R70       -0.3467
      2 C1          0.0450    1.2330    0.3420 c3      1  R70        0.4030
      3 H1          0.5210    1.6700    1.2200 h1      1  R70       -0.0473
      4 H2         -0.9140    0.8220    0.6620 h1      1  R70       -0.0473
      5 C2         -0.1960    2.3120   -0.7300 c3      1  R70       -0.2698
      6 H3         -0.6170    1.8490   -1.6230 hc      1  R70        0.0447
      7 H4          0.7420    2.7990   -1.0000 hc      1  R70        0.0447
      8 C3         -1.1940    3.3360   -0.2170 c       1  R70        0.8632
      9 O1         -2.3630    3.3400   -0.5240 o       1  R70       -0.6345
     10 N2         -0.6650    4.2410    0.6390 n       1  R70       -0.9452
     11 H5          0.3020    4.2310    0.9070 hn      1  R70        0.3860
     12 H6         -1.2720    4.9300    1.0520 hn      1  R70        0.3860
     13 CA          0.1320   -0.9710   -0.7440 c3      1  R70        0.0027
     14 H7          0.8580   -1.5540   -1.3170 h1      1  R70        0.0500
     15 H8         -0.6560   -0.6070   -1.4100 h1      1  R70        0.0500
     16 C          -0.4780   -1.8380    0.3600 c       1  R70        0.6509
     17 O          -0.5000   -1.4700    1.5200 o       1  R70       -0.5904
@<TRIPOS>BOND
     1     6     5    1
     2    15    13    1
     3    14    13    1
     4     7     5    1
     5    13     1    1
     6    13    16    1
     7     5     8    1
     8     5     2    1
     9     9     8    2
    10     8    10   am
    11     1     2    1
    12     2     4    1
    13     2     3    1
    14    16    17    2
    15    10    11    1
    16    10    12    1
@<TRIPOS>SUBSTRUCTURE
      1 R70               1 ****               0 ****  ****
@<TRIPOS>HEADTAIL
N  1
C  1
@<TRIPOS>RESIDUECONNECT
1 N C 0 0 0 0