@<TRIPOS>MOLECULE
energy: -69.892025495255 gnorm: 0.000462406638 xtb: 6.7.1 (edcfbbe)
 49 50 0 0 0
SMALL
GASTEIGER

@<TRIPOS>ATOM
      1 C           2.8889   -0.5936    1.8429 C.3     1  UNL1        0.0124
      2 C           2.6383   -1.9138    2.5372 C.2     1  UNL1        0.2132
      3 O           2.8974   -2.0620    3.7212 O.2     1  UNL1       -0.2759
      4 N           2.0998   -2.9286    1.8194 N.am    1  UNL1       -0.2874
      5 C           1.6920   -2.8524    0.4318 C.3     1  UNL1        0.0527
      6 C           2.3524   -3.9238   -0.4849 C.3     1  UNL1        0.0776
      7 O           3.4123   -3.3935   -1.2455 O.3     1  UNL1       -0.3702
      8 C           4.6519   -3.3807   -0.5705 C.3     1  UNL1        0.0731
      9 C           5.7506   -2.8971   -1.4759 C.ar    1  UNL1       -0.0219
     10 C           5.5177   -2.6132   -2.8131 C.ar    1  UNL1       -0.0564
     11 C           6.5503   -2.1749   -3.6248 C.ar    1  UNL1       -0.0614
     12 C           7.8242   -2.0178   -3.1086 C.ar    1  UNL1       -0.0617
     13 C           8.0629   -2.3005   -1.7733 C.ar    1  UNL1       -0.0614
     14 C           7.0325   -2.7362   -0.9616 C.ar    1  UNL1       -0.0564
     15 C           1.2284   -4.3750   -1.4211 C.3     1  UNL1       -0.0248
     16 C          -0.0288   -4.2989   -0.5642 C.3     1  UNL1       -0.0489
     17 C           0.1647   -3.0195    0.2535 C.3     1  UNL1       -0.0318
     18 C           1.8416   -4.1571    2.5594 C.3     1  UNL1        0.0915
     19 C           3.1547   -4.8909    2.8649 C.2     1  UNL1        0.2325
     20 O           3.8697   -5.2521    1.9412 O.2     1  UNL1       -0.2739
     21 N           3.4567   -5.1537    4.1464 N.am    1  UNL1       -0.3063
     22 C           2.6946   -4.6996    5.2903 C.3     1  UNL1        0.0029
     23 C           4.6911   -5.8494    4.4389 C.3     1  UNL1        0.0029
     24 H           3.3228    0.0844    2.5736 H       1  UNL1        0.0323
     25 H           1.9580   -0.1667    1.4758 H       1  UNL1        0.0323
     26 H           3.5845   -0.7075    1.0142 H       1  UNL1        0.0323
     27 H           2.0019   -1.8825    0.0455 H       1  UNL1        0.0526
     28 H           2.7204   -4.7616    0.1194 H       1  UNL1        0.0614
     29 H           4.8894   -4.3916   -0.2061 H       1  UNL1        0.0610
     30 H           4.6000   -2.7316    0.3183 H       1  UNL1        0.0610
     31 H           4.5221   -2.7405   -3.2074 H       1  UNL1        0.0621
     32 H           6.3582   -1.9565   -4.6655 H       1  UNL1        0.0618
     33 H           8.6300   -1.6772   -3.7424 H       1  UNL1        0.0618
     34 H           9.0559   -2.1805   -1.3645 H       1  UNL1        0.0618
     35 H           7.2176   -2.9578    0.0800 H       1  UNL1        0.0621
     36 H           1.4112   -5.3686   -1.8245 H       1  UNL1        0.0291
     37 H           1.1746   -3.6677   -2.2492 H       1  UNL1        0.0291
     38 H          -0.0849   -5.1715    0.0895 H       1  UNL1        0.0267
     39 H          -0.9376   -4.2694   -1.1635 H       1  UNL1        0.0267
     40 H          -0.3449   -3.0599    1.2159 H       1  UNL1        0.0284
     41 H          -0.2324   -2.1675   -0.2982 H       1  UNL1        0.0284
     42 H           1.2408   -4.8168    1.9334 H       1  UNL1        0.0560
     43 H           1.2926   -3.9103    3.4682 H       1  UNL1        0.0560
     44 H           1.7207   -5.1930    5.3398 H       1  UNL1        0.0428
     45 H           2.5650   -3.6168    5.2513 H       1  UNL1        0.0428
     46 H           3.2486   -4.9485    6.1922 H       1  UNL1        0.0428
     47 H           5.1549   -6.1329    3.4960 H       1  UNL1        0.0428
     48 H           4.4858   -6.7457    5.0276 H       1  UNL1        0.0428
     49 H           5.3716   -5.1998    4.9931 H       1  UNL1        0.0428
@<TRIPOS>BOND
     1    32    11    1
     2    33    12    1
     3    11    12   ar
     4    11    10   ar
     5    31    10    1
     6    12    13   ar
     7    10     9   ar
     8    37    15    1
     9    36    15    1
    10    13    34    1
    11    13    14   ar
    12     9    14   ar
    13     9     8    1
    14    15    16    1
    15    15     6    1
    16     7     8    1
    17     7     6    1
    18    39    16    1
    19    14    35    1
    20     8    29    1
    21     8    30    1
    22    16    38    1
    23    16    17    1
    24     6    28    1
    25     6     5    1
    26    41    17    1
    27    27     5    1
    28    17     5    1
    29    17    40    1
    30     5     4    1
    31    26     1    1
    32    25     1    1
    33     4     2   am
    34     4    18    1
    35     1     2    1
    36     1    24    1
    37    42    18    1
    38    20    19    2
    39     2     3    2
    40    18    19    1
    41    18    43    1
    42    19    21   am
    43    47    23    1
    44    21    23    1
    45    21    22    1
    46    23    49    1
    47    23    48    1
    48    45    22    1
    49    22    44    1
    50    22    46    1
