@<TRIPOS>MOLECULE
energy:
   49    50     1     0     0
SMALL
rc


@<TRIPOS>ATOM
      1 C            2.8890    -0.5940     1.8430 c3         1 UNL      -0.257688
      2 C1           2.6380    -1.9140     2.5370 c          1 UNL       0.578626
      3 O            2.8970    -2.0620     3.7210 o          1 UNL      -0.524600
      4 N            2.1000    -2.9290     1.8190 n          1 UNL      -0.307036
      5 C2           1.6920    -2.8520     0.4320 c3         1 UNL       0.186020
      6 C3           2.3520    -3.9240    -0.4850 c3         1 UNL       0.412181
      7 O1           3.4120    -3.3930    -1.2460 os         1 UNL      -0.484715
      8 C4           4.6520    -3.3810    -0.5710 c3         1 UNL       0.211603
      9 C5           5.7510    -2.8970    -1.4760 ca         1 UNL       0.045609
     10 C6           5.5180    -2.6130    -2.8130 ca         1 UNL      -0.102903
     11 C7           6.5500    -2.1750    -3.6250 ca         1 UNL      -0.087521
     12 C8           7.8240    -2.0180    -3.1090 ca         1 UNL      -0.123413
     13 C9           8.0630    -2.3000    -1.7730 ca         1 UNL      -0.087521
     14 C10          7.0320    -2.7360    -0.9620 ca         1 UNL      -0.102903
     15 C11          1.2280    -4.3750    -1.4210 c3         1 UNL      -0.132994
     16 C12         -0.0290    -4.2990    -0.5640 c3         1 UNL       0.147206
     17 C13          0.1650    -3.0190     0.2540 c3         1 UNL      -0.037508
     18 C14          1.8420    -4.1570     2.5590 c3         1 UNL       0.076307
     19 C15          3.1550    -4.8910     2.8650 c          1 UNL       0.542194
     20 O2           3.8700    -5.2520     1.9410 o          1 UNL      -0.543929
     21 N1           3.4570    -5.1540     4.1460 n          1 UNL      -0.350759
     22 C16          2.6950    -4.7000     5.2900 c3         1 UNL       0.213245
     23 C17          4.6910    -5.8490     4.4390 c3         1 UNL       0.213245
     24 H            3.3230     0.0840     2.5740 hc         1 UNL       0.049343
     25 H1           1.9580    -0.1670     1.4760 hc         1 UNL       0.073071
     26 H2           3.5840    -0.7080     1.0140 hc         1 UNL       0.081249
     27 H3           2.0020    -1.8830     0.0450 h1         1 UNL      -0.010410
     28 H4           2.7200    -4.7620     0.1190 h1         1 UNL      -0.013234
     29 H5           4.8890    -4.3920    -0.2060 h1         1 UNL       0.015468
     30 H6           4.6000    -2.7320     0.3180 h1         1 UNL       0.015468
     31 H7           4.5220    -2.7400    -3.2070 ha         1 UNL       0.077316
     32 H8           6.3580    -1.9560    -4.6650 ha         1 UNL       0.080556
     33 H9           8.6300    -1.6770    -3.7420 ha         1 UNL       0.091492
     34 H10          9.0560    -2.1800    -1.3650 ha         1 UNL       0.080556
     35 H11          7.2180    -2.9580     0.0800 ha         1 UNL       0.077316
     36 H12          1.4110    -5.3690    -1.8250 hc         1 UNL       0.005808
     37 H13          1.1750    -3.6680    -2.2490 hc         1 UNL       0.037226
     38 H14         -0.0850    -5.1710     0.0890 hc         1 UNL      -0.042888
     39 H15         -0.9380    -4.2690    -1.1630 hc         1 UNL      -0.042888
     40 H16         -0.3450    -3.0600     1.2160 hc         1 UNL      -0.021203
     41 H17         -0.2320    -2.1670    -0.2980 hc         1 UNL      -0.001413
     42 H18          1.2410    -4.8170     1.9330 h1         1 UNL       0.020076
     43 H19          1.2930    -3.9100     3.4680 h1         1 UNL       0.020076
     44 H20          1.7210    -5.1930     5.3400 h1         1 UNL      -0.012622
     45 H21          2.5650    -3.6170     5.2510 h1         1 UNL      -0.012622
     46 H22          3.2490    -4.9490     6.1920 h1         1 UNL      -0.012622
     47 H23          5.1550    -6.1330     3.4960 h1         1 UNL      -0.012622
     48 H24          4.4860    -6.7460     5.0280 h1         1 UNL      -0.012622
     49 H25          5.3720    -5.2000     4.9930 h1         1 UNL      -0.012622
@<TRIPOS>BOND
     1    32    11 1   
     2    33    12 1   
     3    11    12 ar  
     4    11    10 ar  
     5    31    10 1   
     6    12    13 ar  
     7    10     9 ar  
     8    37    15 1   
     9    36    15 1   
    10    13    34 1   
    11    13    14 ar  
    12     9    14 ar  
    13     9     8 1   
    14    15    16 1   
    15    15     6 1   
    16     7     8 1   
    17     7     6 1   
    18    39    16 1   
    19    14    35 1   
    20     8    29 1   
    21     8    30 1   
    22    16    38 1   
    23    16    17 1   
    24     6    28 1   
    25     6     5 1   
    26    41    17 1   
    27    27     5 1   
    28    17     5 1   
    29    17    40 1   
    30     5     4 1   
    31    26     1 1   
    32    25     1 1   
    33     4     2 1   
    34     4    18 1   
    35     1     2 1   
    36     1    24 1   
    37    42    18 1   
    38    20    19 2   
    39     2     3 2   
    40    18    19 1   
    41    18    43 1   
    42    19    21 1   
    43    47    23 1   
    44    21    23 1   
    45    21    22 1   
    46    23    49 1   
    47    23    48 1   
    48    45    22 1   
    49    22    44 1   
    50    22    46 1   
@<TRIPOS>SUBSTRUCTURE
     1 UNL         1 TEMP              0 ****  ****    0 ROOT
