@<TRIPOS>MOLECULE
energy: -52.086533130193 gnorm: 0.000292631435 xtb: 6.7.1 (edcfbbe)
 32 32 0 0 0
SMALL
GASTEIGER

@<TRIPOS>ATOM
      1 C           1.2683    0.0372    0.1052 C.3     1  UNL1        0.0127
      2 C           2.7746   -0.0306    0.0187 C.2     1  UNL1        0.2172
      3 O           3.4981    0.2971    0.9376 O.2     1  UNL1       -0.2755
      4 N           3.2876   -0.5421   -1.1367 N.am    1  UNL1       -0.2602
      5 C           2.5167   -0.8471   -2.2793 C.ar    1  UNL1        0.0720
      6 C           2.4743   -2.1490   -2.7742 C.ar    1  UNL1        0.1447
      7 C           1.7349   -2.4872   -3.8906 C.ar    1  UNL1       -0.0246
      8 C           1.0129   -1.5024   -4.5414 C.ar    1  UNL1       -0.0589
      9 C           1.0492   -0.1979   -4.0769 C.ar    1  UNL1       -0.0598
     10 C           1.7954    0.1282   -2.9596 C.ar    1  UNL1       -0.0375
     11 F           3.1753   -3.1210   -2.1431 F       1  UNL1       -0.2035
     12 C           4.7275   -0.6478   -1.2499 C.3     1  UNL1        0.0963
     13 C           5.2899    0.5373   -2.0368 C.2     1  UNL1        0.2329
     14 O           4.5664    1.3062   -2.6408 O.2     1  UNL1       -0.2739
     15 N           6.6354    0.6552   -2.0215 N.am    1  UNL1       -0.3063
     16 C           7.5061   -0.2142   -1.2659 C.3     1  UNL1        0.0029
     17 C           7.2500    1.7979   -2.6603 C.3     1  UNL1        0.0029
     18 H           0.9894    0.0584    1.1556 H       1  UNL1        0.0323
     19 H           0.8004   -0.8110   -0.3874 H       1  UNL1        0.0323
     20 H           0.9142    0.9540   -0.3605 H       1  UNL1        0.0323
     21 H           1.7308   -3.5110   -4.2302 H       1  UNL1        0.0647
     22 H           0.4295   -1.7553   -5.4131 H       1  UNL1        0.0618
     23 H           0.5003    0.5736   -4.5944 H       1  UNL1        0.0618
     24 H           1.8585    1.1480   -2.6174 H       1  UNL1        0.0637
     25 H           4.9987   -1.5859   -1.7411 H       1  UNL1        0.0564
     26 H           5.1221   -0.6394   -0.2304 H       1  UNL1        0.0564
     27 H           7.2985   -1.2628   -1.4807 H       1  UNL1        0.0428
     28 H           7.4036   -0.0492   -0.1894 H       1  UNL1        0.0428
     29 H           8.5354   -0.0046   -1.5495 H       1  UNL1        0.0428
     30 H           6.4654    2.3668   -3.1549 H       1  UNL1        0.0428
     31 H           7.9831    1.4711   -3.4002 H       1  UNL1        0.0428
     32 H           7.7424    2.4316   -1.9194 H       1  UNL1        0.0428
@<TRIPOS>BOND
     1    22     8    1
     2    23     9    1
     3     8     9   ar
     4     8     7   ar
     5    21     7    1
     6     9    10   ar
     7     7     6   ar
     8    31    17    1
     9    30    17    1
    10    10    24    1
    11    10     5   ar
    12     6     5   ar
    13     6    11    1
    14    17    15    1
    15    17    32    1
    16    14    13    2
    17     5     4    1
    18    13    15   am
    19    13    12    1
    20    15    16    1
    21    25    12    1
    22    29    16    1
    23    27    16    1
    24    16    28    1
    25    12     4    1
    26    12    26    1
    27     4     2   am
    28    19     1    1
    29    20     1    1
    30     2     1    1
    31     2     3    2
    32     1    18    1
