@<TRIPOS>MOLECULE
energy:
   32    32     1     0     0
SMALL
rc


@<TRIPOS>ATOM
      1 C            1.2680     0.0370     0.1050 c3         1 UNL      -0.291620
      2 C1           2.7750    -0.0310     0.0190 c          1 UNL       0.693934
      3 O            3.4980     0.2970     0.9380 o          1 UNL      -0.611229
      4 N            3.2880    -0.5420    -1.1370 n          1 UNL      -0.254115
      5 C2           2.5170    -0.8470    -2.2790 ca         1 UNL       0.130571
      6 C3           2.4740    -2.1490    -2.7740 ca         1 UNL       0.345772
      7 C4           1.7350    -2.4870    -3.8910 ca         1 UNL      -0.301768
      8 C5           1.0130    -1.5020    -4.5410 ca         1 UNL      -0.058558
      9 C6           1.0490    -0.1980    -4.0770 ca         1 UNL      -0.145829
     10 C7           1.7950     0.1280    -2.9600 ca         1 UNL      -0.133478
     11 F            3.1750    -3.1210    -2.1430 f          1 UNL      -0.265515
     12 C8           4.7280    -0.6480    -1.2500 c3         1 UNL      -0.043612
     13 C9           5.2900     0.5370    -2.0370 c          1 UNL       0.611656
     14 O1           4.5660     1.3060    -2.6410 o          1 UNL      -0.571318
     15 N1           6.6350     0.6550    -2.0220 n          1 UNL      -0.336063
     16 C10          7.5060    -0.2140    -1.2660 c3         1 UNL       0.164977
     17 C11          7.2500     1.7980    -2.6600 c3         1 UNL       0.164977
     18 H            0.9890     0.0580     1.1560 hc         1 UNL       0.080966
     19 H1           0.8000    -0.8110    -0.3870 hc         1 UNL       0.051423
     20 H2           0.9140     0.9540    -0.3600 hc         1 UNL       0.076526
     21 H3           1.7310    -3.5110    -4.2300 ha         1 UNL       0.169586
     22 H4           0.4290    -1.7550    -5.4130 ha         1 UNL       0.108455
     23 H5           0.5000     0.5740    -4.5940 ha         1 UNL       0.107697
     24 H6           1.8590     1.1480    -2.6170 ha         1 UNL       0.152723
     25 H7           4.9990    -1.5860    -1.7410 h1         1 UNL       0.073867
     26 H8           5.1220    -0.6390    -0.2300 h1         1 UNL       0.073867
     27 H9           7.2980    -1.2630    -1.4810 h1         1 UNL       0.001018
     28 H10          7.4040    -0.0490    -0.1890 h1         1 UNL       0.001018
     29 H11          8.5350    -0.0050    -1.5500 h1         1 UNL       0.001018
     30 H12          6.4650     2.3670    -3.1550 h1         1 UNL       0.001018
     31 H13          7.9830     1.4710    -3.4000 h1         1 UNL       0.001018
     32 H14          7.7420     2.4320    -1.9190 h1         1 UNL       0.001018
@<TRIPOS>BOND
     1    22     8 1   
     2    23     9 1   
     3     8     9 ar  
     4     8     7 ar  
     5    21     7 1   
     6     9    10 ar  
     7     7     6 ar  
     8    31    17 1   
     9    30    17 1   
    10    10    24 1   
    11    10     5 ar  
    12     6     5 ar  
    13     6    11 1   
    14    17    15 1   
    15    17    32 1   
    16    14    13 2   
    17     5     4 1   
    18    13    15 1   
    19    13    12 1   
    20    15    16 1   
    21    25    12 1   
    22    29    16 1   
    23    27    16 1   
    24    16    28 1   
    25    12     4 1   
    26    12    26 1   
    27     4     2 1   
    28    19     1 1   
    29    20     1 1   
    30     2     1 1   
    31     2     3 2   
    32     1    18 1   
@<TRIPOS>SUBSTRUCTURE
     1 UNL         1 TEMP              0 ****  ****    0 ROOT
