@<TRIPOS>MOLECULE
energy: -57.284706862727 gnorm: 0.000663850333 xtb: 6.7.1 (edcfbbe)
 44 44 0 0 0
SMALL
GASTEIGER

@<TRIPOS>ATOM
      1 C           2.7455    4.6778   -1.7304 C.3     1  UNL1        0.0124
      2 C           3.1123    3.4387   -2.5165 C.2     1  UNL1        0.2131
      3 O           3.4944    3.5127   -3.6718 O.2     1  UNL1       -0.2759
      4 N           2.9933    2.2327   -1.9027 N.am    1  UNL1       -0.2898
      5 C           2.5207    2.0386   -0.5392 C.3     1  UNL1        0.0265
      6 C           3.3049    0.9434    0.1831 C.3     1  UNL1       -0.0461
      7 C           0.9841    1.8393   -0.5146 C.3     1  UNL1       -0.0226
      8 C           0.4612    1.7645    0.9216 C.3     1  UNL1       -0.0485
      9 C          -1.0640    1.7195    0.9369 C.3     1  UNL1       -0.0527
     10 C          -1.5634    0.5150    0.1459 C.3     1  UNL1       -0.0530
     11 C          -1.0378    0.5700   -1.2846 C.3     1  UNL1       -0.0527
     12 C           0.4890    0.6252   -1.3018 C.3     1  UNL1       -0.0485
     13 C           3.4852    1.1188   -2.6884 C.3     1  UNL1        0.0914
     14 C           5.0193    1.1244   -2.6905 C.2     1  UNL1        0.2325
     15 O           5.6499    1.6839   -1.8130 O.2     1  UNL1       -0.2739
     16 N           5.6164    0.4438   -3.6915 N.am    1  UNL1       -0.3063
     17 C           4.9065   -0.1974   -4.7726 C.3     1  UNL1        0.0029
     18 C           7.0555    0.5034   -3.8202 C.3     1  UNL1        0.0029
     19 H           2.8113    5.5281   -2.4039 H       1  UNL1        0.0323
     20 H           3.4548    4.8214   -0.9181 H       1  UNL1        0.0323
     21 H           1.7398    4.6213   -1.3232 H       1  UNL1        0.0323
     22 H           2.7264    2.9676    0.0013 H       1  UNL1        0.0500
     23 H           2.9894   -0.0563   -0.1020 H       1  UNL1        0.0248
     24 H           3.1729    1.0480    1.2562 H       1  UNL1        0.0248
     25 H           4.3617    1.0601   -0.0424 H       1  UNL1        0.0248
     26 H           0.5444    2.7258   -0.9878 H       1  UNL1        0.0319
     27 H           0.8135    2.6283    1.4899 H       1  UNL1        0.0269
     28 H           0.8439    0.8639    1.4039 H       1  UNL1        0.0269
     29 H          -1.4616    2.6352    0.4931 H       1  UNL1        0.0265
     30 H          -1.4221    1.6648    1.9670 H       1  UNL1        0.0265
     31 H          -2.6551    0.4963    0.1412 H       1  UNL1        0.0265
     32 H          -1.2150   -0.4027    0.6258 H       1  UNL1        0.0265
     33 H          -1.4357    1.4581   -1.7814 H       1  UNL1        0.0265
     34 H          -1.3804   -0.3047   -1.8419 H       1  UNL1        0.0265
     35 H           0.8295    0.6894   -2.3363 H       1  UNL1        0.0269
     36 H           0.8808   -0.2944   -0.8622 H       1  UNL1        0.0269
     37 H           3.1191    1.2484   -3.7100 H       1  UNL1        0.0560
     38 H           3.1256    0.1767   -2.2791 H       1  UNL1        0.0560
     39 H           4.5421    0.5338   -5.5007 H       1  UNL1        0.0428
     40 H           4.0640   -0.7783   -4.3987 H       1  UNL1        0.0428
     41 H           5.5902   -0.8770   -5.2786 H       1  UNL1        0.0428
     42 H           7.4439    1.0791   -2.9827 H       1  UNL1        0.0428
     43 H           7.3350    0.9935   -4.7552 H       1  UNL1        0.0428
     44 H           7.4806   -0.5026   -3.7980 H       1  UNL1        0.0428
@<TRIPOS>BOND
     1    39    17    1
     2    41    17    1
     3    17    40    1
     4    17    16    1
     5    43    18    1
     6    18    44    1
     7    18    16    1
     8    18    42    1
     9    37    13    1
    10    16    14   am
    11     3     2    2
    12    14    13    1
    13    14    15    2
    14    13    38    1
    15    13     4    1
    16     2     4   am
    17     2     1    1
    18    19     1    1
    19    35    12    1
    20     4     5    1
    21    34    11    1
    22    33    11    1
    23     1    21    1
    24     1    20    1
    25    12    11    1
    26    12    36    1
    27    12     7    1
    28    11    10    1
    29    26     7    1
    30     5     7    1
    31     5    22    1
    32     5     6    1
    33     7     8    1
    34    23     6    1
    35    25     6    1
    36    31    10    1
    37    10    32    1
    38    10     9    1
    39     6    24    1
    40    29     9    1
    41     8     9    1
    42     8    28    1
    43     8    27    1
    44     9    30    1
