@<TRIPOS>MOLECULE
energy:
   44    44     1     0     0
SMALL
rc


@<TRIPOS>ATOM
      1 C            2.7450     4.6780    -1.7300 c3         1 UNL      -0.394315
      2 C1           3.1120     3.4390    -2.5170 c          1 UNL       0.694885
      3 O            3.4940     3.5130    -3.6720 o          1 UNL      -0.605648
      4 N            2.9930     2.2330    -1.9030 n          1 UNL      -0.403730
      5 C2           2.5210     2.0390    -0.5390 c3         1 UNL       0.373242
      6 C3           3.3050     0.9430     0.1830 c3         1 UNL      -0.206785
      7 C4           0.9840     1.8390    -0.5150 c3         1 UNL       0.049045
      8 C5           0.4610     1.7640     0.9220 c3         1 UNL       0.084563
      9 C6          -1.0640     1.7200     0.9370 c3         1 UNL       0.054265
     10 C7          -1.5630     0.5150     0.1460 c3         1 UNL       0.179374
     11 C8          -1.0380     0.5700    -1.2850 c3         1 UNL       0.054265
     12 C9           0.4890     0.6250    -1.3020 c3         1 UNL       0.084563
     13 C10          3.4850     1.1190    -2.6880 c3         1 UNL       0.132397
     14 C11          5.0190     1.1240    -2.6910 c          1 UNL       0.567918
     15 O1           5.6500     1.6840    -1.8130 o          1 UNL      -0.542154
     16 N1           5.6160     0.4440    -3.6920 n          1 UNL      -0.317714
     17 C12          4.9070    -0.1970    -4.7730 c3         1 UNL       0.148116
     18 C13          7.0560     0.5030    -3.8200 c3         1 UNL       0.148116
     19 H            2.8110     5.5280    -2.4040 hc         1 UNL       0.098945
     20 H1           3.4550     4.8210    -0.9180 hc         1 UNL       0.113793
     21 H2           1.7400     4.6210    -1.3230 hc         1 UNL       0.092339
     22 H3           2.7260     2.9680     0.0010 h1         1 UNL      -0.043062
     23 H4           2.9890    -0.0560    -0.1020 hc         1 UNL       0.037691
     24 H5           3.1730     1.0480     1.2560 hc         1 UNL       0.037691
     25 H6           4.3620     1.0600    -0.0420 hc         1 UNL       0.037691
     26 H7           0.5440     2.7260    -0.9880 hc         1 UNL      -0.036630
     27 H8           0.8140     2.6280     1.4900 hc         1 UNL      -0.044525
     28 H9           0.8440     0.8640     1.4040 hc         1 UNL      -0.044525
     29 H10         -1.4620     2.6350     0.4930 hc         1 UNL      -0.043915
     30 H11         -1.4220     1.6650     1.9670 hc         1 UNL      -0.043915
     31 H12         -2.6550     0.4960     0.1410 hc         1 UNL      -0.064578
     32 H13         -1.2150    -0.4030     0.6260 hc         1 UNL      -0.064578
     33 H14         -1.4360     1.4580    -1.7810 hc         1 UNL      -0.043915
     34 H15         -1.3800    -0.3050    -1.8420 hc         1 UNL      -0.043915
     35 H16          0.8300     0.6890    -2.3360 hc         1 UNL      -0.044525
     36 H17          0.8810    -0.2940    -0.8620 hc         1 UNL      -0.044525
     37 H18          3.1190     1.2480    -3.7100 h1         1 UNL       0.011286
     38 H19          3.1260     0.1770    -2.2790 h1         1 UNL       0.011286
     39 H20          4.5420     0.5340    -5.5010 h1         1 UNL       0.003580
     40 H21          4.0640    -0.7780    -4.3990 h1         1 UNL       0.003580
     41 H22          5.5900    -0.8770    -5.2790 h1         1 UNL       0.003580
     42 H23          7.4440     1.0790    -2.9830 h1         1 UNL       0.003580
     43 H24          7.3350     0.9940    -4.7550 h1         1 UNL       0.003580
     44 H25          7.4810    -0.5030    -3.7980 h1         1 UNL       0.003580
@<TRIPOS>BOND
     1    39    17 1   
     2    41    17 1   
     3    17    40 1   
     4    17    16 1   
     5    43    18 1   
     6    18    44 1   
     7    18    16 1   
     8    18    42 1   
     9    37    13 1   
    10    16    14 1   
    11     3     2 2   
    12    14    13 1   
    13    14    15 2   
    14    13    38 1   
    15    13     4 1   
    16     2     4 1   
    17     2     1 1   
    18    19     1 1   
    19    35    12 1   
    20     4     5 1   
    21    34    11 1   
    22    33    11 1   
    23     1    21 1   
    24     1    20 1   
    25    12    11 1   
    26    12    36 1   
    27    12     7 1   
    28    11    10 1   
    29    26     7 1   
    30     5     7 1   
    31     5    22 1   
    32     5     6 1   
    33     7     8 1   
    34    23     6 1   
    35    25     6 1   
    36    31    10 1   
    37    10    32 1   
    38    10     9 1   
    39     6    24 1   
    40    29     9 1   
    41     8     9 1   
    42     8    28 1   
    43     8    27 1   
    44     9    30 1   
@<TRIPOS>SUBSTRUCTURE
     1 UNL         1 TEMP              0 ****  ****    0 ROOT
