@<TRIPOS>MOLECULE
energy: -58.236266254012 gnorm: 0.000406273065 xtb: 6.7.1 (edcfbbe)
 38 38 0 0 0
SMALL
GASTEIGER

@<TRIPOS>ATOM
      1 C           1.5644    0.3026   -0.2557 C.3     1  UNL1        0.0124
      2 C           3.0301    0.1048    0.0524 C.2     1  UNL1        0.2129
      3 O           3.8992    0.4017   -0.7465 O.2     1  UNL1       -0.2759
      4 N           3.3420   -0.4673    1.2469 N.am    1  UNL1       -0.2926
      5 C           2.3854   -0.8489    2.2594 C.3     1  UNL1        0.0192
      6 C           1.9545    0.3026    3.1888 C.3     1  UNL1       -0.0118
      7 C           1.2053   -0.2490    4.3638 C.ar    1  UNL1       -0.0458
      8 C           1.8841   -0.6430    5.5110 C.ar    1  UNL1       -0.0571
      9 C           1.2099   -1.1906    6.5868 C.ar    1  UNL1       -0.0431
     10 C          -0.1643   -1.3505    6.5147 C.ar    1  UNL1        0.0410
     11 CL         -1.0178   -2.0351    7.8557 Cl      1  UNL1       -0.0835
     12 C          -0.8629   -0.9660    5.3824 C.ar    1  UNL1       -0.0431
     13 C          -0.1727   -0.4203    4.3150 C.ar    1  UNL1       -0.0571
     14 C           4.7527   -0.6578    1.5078 C.3     1  UNL1        0.0911
     15 C           5.4044    0.5647    2.1621 C.2     1  UNL1        0.2325
     16 O           4.7517    1.4328    2.7102 O.2     1  UNL1       -0.2739
     17 N           6.7534    0.5959    2.1148 N.am    1  UNL1       -0.3063
     18 C           7.5629   -0.3934    1.4426 C.3     1  UNL1        0.0029
     19 C           7.4489    1.7529    2.6349 C.3     1  UNL1        0.0029
     20 H           1.4876    0.7584   -1.2391 H       1  UNL1        0.0323
     21 H           1.0972    0.9556    0.4752 H       1  UNL1        0.0323
     22 H           1.0417   -0.6517   -0.2670 H       1  UNL1        0.0323
     23 H           2.8459   -1.6299    2.8722 H       1  UNL1        0.0468
     24 H           1.5023   -1.2836    1.7837 H       1  UNL1        0.0468
     25 H           1.3260    1.0042    2.6409 H       1  UNL1        0.0328
     26 H           2.8487    0.8345    3.5131 H       1  UNL1        0.0328
     27 H           2.9545   -0.5092    5.5659 H       1  UNL1        0.0621
     28 H           1.7421   -1.4894    7.4764 H       1  UNL1        0.0632
     29 H          -1.9335   -1.0916    5.3393 H       1  UNL1        0.0632
     30 H          -0.7186   -0.1171    3.4334 H       1  UNL1        0.0621
     31 H           5.2287   -0.8369    0.5398 H       1  UNL1        0.0560
     32 H           4.8912   -1.5298    2.1535 H       1  UNL1        0.0560
     33 H           7.2887   -1.4024    1.7518 H       1  UNL1        0.0428
     34 H           8.6048   -0.2269    1.7097 H       1  UNL1        0.0428
     35 H           7.4685   -0.3181    0.3554 H       1  UNL1        0.0428
     36 H           6.7094    2.4231    3.0685 H       1  UNL1        0.0428
     37 H           7.9791    2.2718    1.8338 H       1  UNL1        0.0428
     38 H           8.1622    1.4520    3.4049 H       1  UNL1        0.0428
@<TRIPOS>BOND
     1    20     1    1
     2     3     2    2
     3    22     1    1
     4     1     2    1
     5     1    21    1
     6     2     4   am
     7    35    18    1
     8    31    14    1
     9     4    14    1
    10     4     5    1
    11    18    34    1
    12    18    33    1
    13    18    17    1
    14    14    32    1
    15    14    15    1
    16    24     5    1
    17    37    19    1
    18    17    15   am
    19    17    19    1
    20    15    16    2
    21     5    23    1
    22     5     6    1
    23    19    36    1
    24    19    38    1
    25    25     6    1
    26     6    26    1
    27     6     7    1
    28    30    13    1
    29    13     7   ar
    30    13    12   ar
    31     7     8   ar
    32    29    12    1
    33    12    10   ar
    34     8    27    1
    35     8     9   ar
    36    10     9   ar
    37    10    11    1
    38     9    28    1
