@<TRIPOS>MOLECULE
energy:
   38    38     1     0     0
SMALL
rc


@<TRIPOS>ATOM
      1 C            1.5640     0.3030    -0.2560 c3         1 UNL      -0.290165
      2 C1           3.0300     0.1050     0.0520 c          1 UNL       0.648910
      3 O            3.8990     0.4020    -0.7470 o          1 UNL      -0.594587
      4 N            3.3420    -0.4670     1.2470 n          1 UNL      -0.356516
      5 C2           2.3850    -0.8490     2.2590 c3         1 UNL       0.299471
      6 C3           1.9540     0.3030     3.1890 c3         1 UNL       0.069641
      7 C4           1.2050    -0.2490     4.3640 ca         1 UNL       0.040846
      8 C5           1.8840    -0.6430     5.5110 ca         1 UNL      -0.174596
      9 C6           1.2100    -1.1910     6.5870 ca         1 UNL      -0.139398
     10 C7          -0.1640    -1.3510     6.5150 ca         1 UNL       0.199141
     11 Cl          -1.0180    -2.0350     7.8560 cl         1 UNL      -0.189840
     12 C8          -0.8630    -0.9660     5.3820 ca         1 UNL      -0.139398
     13 C9          -0.1730    -0.4200     4.3150 ca         1 UNL      -0.174596
     14 C10          4.7530    -0.6580     1.5080 c3         1 UNL      -0.007219
     15 C11          5.4040     0.5650     2.1620 c          1 UNL       0.620681
     16 O1           4.7520     1.4330     2.7100 o          1 UNL      -0.548383
     17 N1           6.7530     0.5960     2.1150 n          1 UNL      -0.317713
     18 C12          7.5630    -0.3930     1.4430 c3         1 UNL       0.128258
     19 C13          7.4490     1.7530     2.6350 c3         1 UNL       0.128258
     20 H            1.4880     0.7580    -1.2390 hc         1 UNL       0.084934
     21 H1           1.0970     0.9560     0.4750 hc         1 UNL       0.078711
     22 H2           1.0420    -0.6520    -0.2670 hc         1 UNL       0.072198
     23 H3           2.8460    -1.6300     2.8720 h1         1 UNL      -0.046926
     24 H4           1.5020    -1.2840     1.7840 h1         1 UNL      -0.046926
     25 H5           1.3260     1.0040     2.6410 hc         1 UNL       0.002096
     26 H6           2.8490     0.8350     3.5130 hc         1 UNL       0.002096
     27 H7           2.9540    -0.5090     5.5660 ha         1 UNL       0.119450
     28 H8           1.7420    -1.4890     7.4760 ha         1 UNL       0.123212
     29 H9          -1.9330    -1.0920     5.3390 ha         1 UNL       0.123212
     30 H10         -0.7190    -0.1170     3.4330 ha         1 UNL       0.119450
     31 H11          5.2290    -0.8370     0.5400 h1         1 UNL       0.052251
     32 H12          4.8910    -1.5300     2.1540 h1         1 UNL       0.052251
     33 H13          7.2890    -1.4020     1.7520 h1         1 UNL       0.010199
     34 H14          8.6050    -0.2270     1.7100 h1         1 UNL       0.010199
     35 H15          7.4680    -0.3180     0.3550 h1         1 UNL       0.010199
     36 H16          6.7090     2.4230     3.0680 h1         1 UNL       0.010199
     37 H17          7.9790     2.2720     1.8340 h1         1 UNL       0.010199
     38 H18          8.1620     1.4520     3.4050 h1         1 UNL       0.010199
@<TRIPOS>BOND
     1    20     1 1   
     2     3     2 2   
     3    22     1 1   
     4     1     2 1   
     5     1    21 1   
     6     2     4 1   
     7    35    18 1   
     8    31    14 1   
     9     4    14 1   
    10     4     5 1   
    11    18    34 1   
    12    18    33 1   
    13    18    17 1   
    14    14    32 1   
    15    14    15 1   
    16    24     5 1   
    17    37    19 1   
    18    17    15 1   
    19    17    19 1   
    20    15    16 2   
    21     5    23 1   
    22     5     6 1   
    23    19    36 1   
    24    19    38 1   
    25    25     6 1   
    26     6    26 1   
    27     6     7 1   
    28    30    13 1   
    29    13     7 ar  
    30    13    12 ar  
    31     7     8 ar  
    32    29    12 1   
    33    12    10 ar  
    34     8    27 1   
    35     8     9 ar  
    36    10     9 ar  
    37    10    11 1   
    38     9    28 1   
@<TRIPOS>SUBSTRUCTURE
     1 UNL         1 TEMP              0 ****  ****    0 ROOT
