@<TRIPOS>MOLECULE
R20.pdb
 35 35 0 0 0
SMALL
GASTEIGER

@<TRIPOS>ATOM
      1  C1         1.4660    0.3520   -0.1830 C.3     1  UNL1        0.0124
      2  C2         2.9690    0.4440   -0.0590 C.2     1  UNL1        0.2132
      3  O1         3.7130    0.2170   -0.9970 O.2     1  UNL1       -0.2759
      4  N1         3.4510    0.8060    1.1560 N.am    1  UNL1       -0.2886
      5  C3         2.6310    1.1320    2.2970 C.3     1  UNL1        0.0402
      6  C4         2.1330    2.5610    2.3100 C.ar    1  UNL1       -0.0301
      7  C5         2.4620    3.4690    1.3140 C.ar    1  UNL1       -0.0571
      8  C6         1.9880    4.7690    1.3660 C.ar    1  UNL1       -0.0615
      9  C7         1.1820    5.1770    2.4130 C.ar    1  UNL1       -0.0617
     10  C8         0.8500    4.2760    3.4120 C.ar    1  UNL1       -0.0615
     11  C9         1.3220    2.9780    3.3600 C.ar    1  UNL1       -0.0571
     12  C10        4.8830    0.8980    1.3190 C.3     1  UNL1        0.0915
     13  C11        5.4170   -0.2450    2.1850 C.2     1  UNL1        0.2325
     14  O2         4.6790   -0.9530    2.8430 O.2     1  UNL1       -0.2739
     15  N2         6.7600   -0.3930    2.1830 N.am    1  UNL1       -0.3063
     16  C12        7.6550    0.4060    1.3800 C.3     1  UNL1        0.0029
     17  C13        7.3490   -1.4890    2.9200 C.3     1  UNL1        0.0029
     18  H1         1.2220    0.1680   -1.2260 H       1  UNL1        0.0323
     19  H2         0.9890    1.2720    0.1450 H       1  UNL1        0.0323
     20  H3         1.0940   -0.4770    0.4150 H       1  UNL1        0.0323
     21  H4         3.2270    0.9490    3.1960 H       1  UNL1        0.0514
     22  H5         1.7780    0.4490    2.3510 H       1  UNL1        0.0514
     23  H6         3.0840    3.1620    0.4860 H       1  UNL1        0.0621
     24  H7         2.2500    5.4640    0.5820 H       1  UNL1        0.0618
     25  H8         0.8120    6.1900    2.4520 H       1  UNL1        0.0618
     26  H9         0.2200    4.5860    4.2330 H       1  UNL1        0.0618
     27  H10        1.0630    2.2760    4.1400 H       1  UNL1        0.0621
     28  H11        5.1480    1.8580    1.7780 H       1  UNL1        0.0560
     29  H12        5.3150    0.8390    0.3160 H       1  UNL1        0.0560
     30  H13        7.4700    1.4710    1.5220 H       1  UNL1        0.0428
     31  H14        7.5570    0.1710    0.3160 H       1  UNL1        0.0428
     32  H15        8.6780    0.1930    1.6860 H       1  UNL1        0.0428
     33  H16        6.5480   -2.0140    3.4370 H       1  UNL1        0.0428
     34  H17        8.0680   -1.1140    3.6510 H       1  UNL1        0.0428
     35  H18        7.8520   -2.1800    2.2410 H       1  UNL1        0.0428
@<TRIPOS>BOND
     1    18     1    1
     2     3     2    2
     3     1     2    1
     4     1    19    1
     5     1    20    1
     6     2     4   am
     7    31    16    1
     8    29    12    1
     9    23     7    1
    10    24     8    1
    11     4    12    1
    12     4     5    1
    13     7     8   ar
    14     7     6   ar
    15    12    28    1
    16    12    13    1
    17     8     9   ar
    18    16    30    1
    19    16    32    1
    20    16    15    1
    21    15    13   am
    22    15    17    1
    23    13    14    2
    24    35    17    1
    25     5     6    1
    26     5    22    1
    27     5    21    1
    28     6    11   ar
    29     9    25    1
    30     9    10   ar
    31    17    33    1
    32    17    34    1
    33    11    10   ar
    34    11    27    1
    35    10    26    1
