@<TRIPOS>MOLECULE
energy: -68.642828486778 gnorm: 0.000466360704 xtb: 6.7.1 (edcfbbe)
 46 46 0 0 0
SMALL
GASTEIGER

@<TRIPOS>ATOM
      1 C           2.9790   -1.8580    1.3833 C.3     1  UNL1        0.0124
      2 C           3.4316   -0.6266    0.6322 C.2     1  UNL1        0.2129
      3 O           4.0394   -0.7008   -0.4202 O.2     1  UNL1       -0.2759
      4 N           3.1761    0.5783    1.2074 N.am    1  UNL1       -0.2926
      5 C           2.4516    0.7801    2.4394 C.3     1  UNL1        0.0192
      6 C           0.9285    0.9110    2.2575 C.3     1  UNL1       -0.0117
      7 C           0.2921    1.2976    3.5587 C.ar    1  UNL1       -0.0422
      8 C          -0.2253    0.3489    4.4242 C.ar    1  UNL1       -0.0548
      9 C          -0.7747    0.7298    5.6360 C.ar    1  UNL1       -0.0160
     10 C          -0.8213    2.0608    6.0299 C.ar    1  UNL1        0.1615
     11 O          -1.3417    2.4691    7.2364 O.3     1  UNL1       -0.4915
     12 C          -1.9088    1.5057    8.0862 C.3     1  UNL1        0.0790
     13 C          -0.3052    3.0360    5.1564 C.ar    1  UNL1        0.1617
     14 O          -0.2490    4.3845    5.3613 O.3     1  UNL1       -0.4914
     15 C          -0.9851    4.9987    6.3943 C.3     1  UNL1        0.0790
     16 C           0.2416    2.6275    3.9450 C.ar    1  UNL1       -0.0131
     17 C           3.5563    1.7359    0.4269 C.3     1  UNL1        0.0911
     18 C           2.5509    2.0058   -0.6993 C.2     1  UNL1        0.2325
     19 O           1.4384    1.5165   -0.6964 O.2     1  UNL1       -0.2739
     20 N           2.9729    2.8447   -1.6712 N.am    1  UNL1       -0.3063
     21 C           4.3026    3.4026   -1.7383 C.3     1  UNL1        0.0029
     22 C           2.1241    3.0675   -2.8210 C.3     1  UNL1        0.0029
     23 H           3.2177   -2.7276    0.7770 H       1  UNL1        0.0323
     24 H           1.9084   -1.8303    1.5631 H       1  UNL1        0.0323
     25 H           3.5002   -1.9390    2.3353 H       1  UNL1        0.0323
     26 H           2.8265    1.6988    2.9030 H       1  UNL1        0.0468
     27 H           2.6653   -0.0425    3.1248 H       1  UNL1        0.0468
     28 H           0.5214   -0.0350    1.9012 H       1  UNL1        0.0328
     29 H           0.7276    1.6624    1.4952 H       1  UNL1        0.0328
     30 H          -0.2099   -0.6973    4.1579 H       1  UNL1        0.0621
     31 H          -1.1684   -0.0354    6.2855 H       1  UNL1        0.0655
     32 H          -2.2755    2.0607    8.9488 H       1  UNL1        0.0660
     33 H          -1.1674    0.7721    8.4196 H       1  UNL1        0.0660
     34 H          -2.7465    0.9870    7.6089 H       1  UNL1        0.0660
     35 H          -0.8627    6.0697    6.2306 H       1  UNL1        0.0660
     36 H          -0.6004    4.7349    7.3816 H       1  UNL1        0.0660
     37 H          -2.0456    4.7429    6.3404 H       1  UNL1        0.0660
     38 H           0.6244    3.4005    3.2965 H       1  UNL1        0.0658
     39 H           4.5354    1.5265   -0.0128 H       1  UNL1        0.0560
     40 H           3.6209    2.6099    1.0794 H       1  UNL1        0.0560
     41 H           4.5979    3.8309   -0.7807 H       1  UNL1        0.0428
     42 H           4.3059    4.1976   -2.4819 H       1  UNL1        0.0428
     43 H           5.0398    2.6499   -2.0336 H       1  UNL1        0.0428
     44 H           1.1841    2.5473   -2.6490 H       1  UNL1        0.0428
     45 H           2.5930    2.6737   -3.7253 H       1  UNL1        0.0428
     46 H           1.9312    4.1347   -2.9490 H       1  UNL1        0.0428
@<TRIPOS>BOND
     1    45    22    1
     2    46    22    1
     3    22    44    1
     4    22    20    1
     5    42    21    1
     6    43    21    1
     7    21    20    1
     8    21    41    1
     9    20    18   am
    10    18    19    2
    11    18    17    1
    12     3     2    2
    13    39    17    1
    14    17    40    1
    15    17     4    1
    16     2     4   am
    17     2     1    1
    18    23     1    1
    19     4     5    1
    20     1    24    1
    21     1    25    1
    22    29     6    1
    23    28     6    1
    24     6     5    1
    25     6     7    1
    26     5    26    1
    27     5    27    1
    28    38    16    1
    29     7    16   ar
    30     7     8   ar
    31    16    13   ar
    32    30     8    1
    33     8     9   ar
    34    13    14    1
    35    13    10   ar
    36    14    15    1
    37     9    10   ar
    38     9    31    1
    39    10    11    1
    40    35    15    1
    41    37    15    1
    42    15    36    1
    43    11    12    1
    44    34    12    1
    45    12    33    1
    46    12    32    1
