@<TRIPOS>MOLECULE
energy:
   46    46     1     0     0
SMALL
rc


@<TRIPOS>ATOM
      1 C            2.9790    -1.8580     1.3830 c3         1 UNL      -0.292697
      2 C1           3.4320    -0.6270     0.6320 c          1 UNL       0.643915
      3 O            4.0390    -0.7010    -0.4200 o          1 UNL      -0.595098
      4 N            3.1760     0.5780     1.2070 n          1 UNL      -0.383299
      5 C2           2.4520     0.7800     2.4390 c3         1 UNL       0.244750
      6 C3           0.9280     0.9110     2.2570 c3         1 UNL       0.204343
      7 C4           0.2920     1.2980     3.5590 ca         1 UNL      -0.030308
      8 C5          -0.2250     0.3490     4.4240 ca         1 UNL      -0.164806
      9 C6          -0.7750     0.7300     5.6360 ca         1 UNL      -0.285631
     10 C7          -0.8210     2.0610     6.0300 ca         1 UNL       0.230150
     11 O1          -1.3420     2.4690     7.2360 os         1 UNL      -0.261860
     12 C8          -1.9090     1.5060     8.0860 c3         1 UNL       0.199203
     13 C9          -0.3050     3.0360     5.1560 ca         1 UNL       0.249454
     14 O2          -0.2490     4.3850     5.3610 os         1 UNL      -0.397656
     15 C10         -0.9850     4.9990     6.3940 c3         1 UNL       0.347942
     16 C11          0.2420     2.6270     3.9450 ca         1 UNL      -0.286328
     17 C12          3.5560     1.7360     0.4270 c3         1 UNL       0.127663
     18 C13          2.5510     2.0060    -0.6990 c          1 UNL       0.583574
     19 O3           1.4380     1.5160    -0.6960 o          1 UNL      -0.551689
     20 N1           2.9730     2.8450    -1.6710 n          1 UNL      -0.315957
     21 C14          4.3030     3.4030    -1.7380 c3         1 UNL       0.168995
     22 C15          2.1240     3.0670    -2.8210 c3         1 UNL       0.168995
     23 H            3.2180    -2.7280     0.7770 hc         1 UNL       0.081454
     24 H1           1.9080    -1.8300     1.5630 hc         1 UNL       0.091044
     25 H2           3.5000    -1.9390     2.3350 hc         1 UNL       0.071383
     26 H3           2.8260     1.6990     2.9030 h1         1 UNL      -0.035995
     27 H4           2.6650    -0.0430     3.1250 h1         1 UNL      -0.035995
     28 H5           0.5210    -0.0350     1.9010 hc         1 UNL      -0.028325
     29 H6           0.7280     1.6620     1.4950 hc         1 UNL      -0.028325
     30 H7          -0.2100    -0.6970     4.1580 ha         1 UNL       0.103103
     31 H8          -1.1680    -0.0350     6.2850 ha         1 UNL       0.160757
     32 H9          -2.2760     2.0610     8.9490 h1         1 UNL      -0.005910
     33 H10         -1.1670     0.7720     8.4200 h1         1 UNL      -0.005910
     34 H11         -2.7470     0.9870     7.6090 h1         1 UNL      -0.005910
     35 H12         -0.8630     6.0700     6.2310 h1         1 UNL      -0.039142
     36 H13         -0.6000     4.7350     7.3820 h1         1 UNL      -0.039142
     37 H14         -2.0460     4.7430     6.3400 h1         1 UNL      -0.039142
     38 H15          0.6240     3.4010     3.2960 ha         1 UNL       0.145484
     39 H16          4.5350     1.5260    -0.0130 h1         1 UNL       0.014475
     40 H17          3.6210     2.6100     1.0790 h1         1 UNL       0.014475
     41 H18          4.5980     3.8310    -0.7810 h1         1 UNL      -0.003672
     42 H19          4.3060     4.1980    -2.4820 h1         1 UNL      -0.003672
     43 H20          5.0400     2.6500    -2.0340 h1         1 UNL      -0.003672
     44 H21          1.1840     2.5470    -2.6490 h1         1 UNL      -0.003672
     45 H22          2.5930     2.6740    -3.7250 h1         1 UNL      -0.003672
     46 H23          1.9310     4.1350    -2.9490 h1         1 UNL      -0.003672
@<TRIPOS>BOND
     1    45    22 1   
     2    46    22 1   
     3    22    44 1   
     4    22    20 1   
     5    42    21 1   
     6    43    21 1   
     7    21    20 1   
     8    21    41 1   
     9    20    18 1   
    10    18    19 2   
    11    18    17 1   
    12     3     2 2   
    13    39    17 1   
    14    17    40 1   
    15    17     4 1   
    16     2     4 1   
    17     2     1 1   
    18    23     1 1   
    19     4     5 1   
    20     1    24 1   
    21     1    25 1   
    22    29     6 1   
    23    28     6 1   
    24     6     5 1   
    25     6     7 1   
    26     5    26 1   
    27     5    27 1   
    28    38    16 1   
    29     7    16 ar  
    30     7     8 ar  
    31    16    13 ar  
    32    30     8 1   
    33     8     9 ar  
    34    13    14 1   
    35    13    10 ar  
    36    14    15 1   
    37     9    10 ar  
    38     9    31 1   
    39    10    11 1   
    40    35    15 1   
    41    37    15 1   
    42    15    36 1   
    43    11    12 1   
    44    34    12 1   
    45    12    33 1   
    46    12    32 1   
@<TRIPOS>SUBSTRUCTURE
     1 UNL         1 TEMP              0 ****  ****    0 ROOT
